<connections>
<connection from="5046281241to5046281115" to="5046281115to5046281241" />
<connection from="5046281241to5046281115" to="5046281115to5046281231" />
<connection from="5046281231to5046281115" to="5046281115to5046281241" />
<connection from="5046281231to5046281115" to="5046281115to5046281231" />
<connection from="5046281242to5046281117" to="5046281117to5046281242" />
<connection from="5046281242to5046281117" to="5046281117to5046281241" />
<connection from="5046281242to5046281117" to="5046281117to9504677030" />
<connection from="5046281241to5046281117" to="5046281117to5046281242" />
<connection from="5046281241to5046281117" to="5046281117to5046281241" />
<connection from="5046281241to5046281117" to="5046281117to9504677030" />
<connection from="9504677030to5046281117" to="5046281117to5046281242" />
<connection from="9504677030to5046281117" to="5046281117to5046281241" />
<connection from="9504677030to5046281117" to="5046281117to9504677030" />
<connection from="5046281696to5046281224" to="5046281224to5046281696" />
<connection from="5046281696to5046281224" to="5046281224to9156968689" />
<connection from="5046281696to5046281224" to="5046281224to9156964136" />
<connection from="9156968689to5046281224" to="5046281224to5046281696" />
<connection from="9156968689to5046281224" to="5046281224to9156968689" />
<connection from="9156968689to5046281224" to="5046281224to9156964136" />
<connection from="9156964136to5046281224" to="5046281224to5046281696" />
<connection from="9156964136to5046281224" to="5046281224to9156968689" />
<connection from="9156964136to5046281224" to="5046281224to9156964136" />
<connection from="5046281115to5046281231" to="5046281231to5046281115" />
<connection from="5046281115to5046281231" to="5046281231to5046281934" />
<connection from="5046281115to5046281231" to="5046281231to9156969777" />
<connection from="5046281934to5046281231" to="5046281231to5046281115" />
<connection from="5046281934to5046281231" to="5046281231to5046281934" />
<connection from="5046281934to5046281231" to="5046281231to9156969777" />
<connection from="9156969777to5046281231" to="5046281231to5046281115" />
<connection from="9156969777to5046281231" to="5046281231to5046281934" />
<connection from="9156969777to5046281231" to="5046281231to9156969777" />
<connection from="5046281115to5046281241" to="5046281241to5046281115" />
<connection from="5046281115to5046281241" to="5046281241to5046281117" />
<connection from="5046281115to5046281241" to="5046281241to9492611306" />
<connection from="5046281117to5046281241" to="5046281241to5046281115" />
<connection from="5046281117to5046281241" to="5046281241to5046281117" />
<connection from="5046281117to5046281241" to="5046281241to9492611306" />
<connection from="9492611306to5046281241" to="5046281241to5046281115" />
<connection from="9492611306to5046281241" to="5046281241to5046281117" />
<connection from="9492611306to5046281241" to="5046281241to9492611306" />
<connection from="5046281117to5046281242" to="5046281242to5046281117" />
<connection from="5046281117to5046281242" to="5046281242to5046281243" />
<connection from="5046281117to5046281242" to="5046281242to9947072295" />
<connection from="5046281243to5046281242" to="5046281242to5046281117" />
<connection from="5046281243to5046281242" to="5046281242to5046281243" />
<connection from="5046281243to5046281242" to="5046281242to9947072295" />
<connection from="9947072295to5046281242" to="5046281242to5046281117" />
<connection from="9947072295to5046281242" to="5046281242to5046281243" />
<connection from="9947072295to5046281242" to="5046281242to9947072295" />
<connection from="5046281242to5046281243" to="5046281243to5046281242" />
<connection from="5046281242to5046281243" to="5046281243to9949523574" />
<connection from="5046281242to5046281243" to="5046281243to5046281246" />
<connection from="9949523574to5046281243" to="5046281243to5046281242" />
<connection from="9949523574to5046281243" to="5046281243to9949523574" />
<connection from="9949523574to5046281243" to="5046281243to5046281246" />
<connection from="5046281246to5046281243" to="5046281243to5046281242" />
<connection from="5046281246to5046281243" to="5046281243to9949523574" />
<connection from="5046281246to5046281243" to="5046281243to5046281246" />
<connection from="5046281243to5046281246" to="5046281246to5046281243" />
<connection from="5046281243to5046281246" to="5046281246to9947072294" />
<connection from="5046281243to5046281246" to="5046281246to5046281250" />
<connection from="9947072294to5046281246" to="5046281246to5046281243" />
<connection from="9947072294to5046281246" to="5046281246to9947072294" />
<connection from="9947072294to5046281246" to="5046281246to5046281250" />
<connection from="5046281250to5046281246" to="5046281246to5046281243" />
<connection from="5046281250to5046281246" to="5046281246to9947072294" />
<connection from="5046281250to5046281246" to="5046281246to5046281250" />
<connection from="5046281246to5046281250" to="5046281250to5046281246" />
<connection from="5046281246to5046281250" to="5046281250to5046281253" />
<connection from="5046281246to5046281250" to="5046281250to5046281316" />
<connection from="5046281253to5046281250" to="5046281250to5046281246" />
<connection from="5046281253to5046281250" to="5046281250to5046281253" />
<connection from="5046281253to5046281250" to="5046281250to5046281316" />
<connection from="5046281316to5046281250" to="5046281250to5046281246" />
<connection from="5046281316to5046281250" to="5046281250to5046281253" />
<connection from="5046281316to5046281250" to="5046281250to5046281316" />
<connection from="5046281250to5046281253" to="5046281253to5046281250" />
<connection from="5046281250to5046281253" to="5046281253to5046281637" />
<connection from="5046281637to5046281253" to="5046281253to5046281250" />
<connection from="5046281637to5046281253" to="5046281253to5046281637" />
<connection from="5046281719to5046281262" to="5046281262to5046281719" />
<connection from="5046281719to5046281262" to="5046281262to9327109712" />
<connection from="5046281719to5046281262" to="5046281262to5046281293" />
<connection from="9327109712to5046281262" to="5046281262to5046281719" />
<connection from="9327109712to5046281262" to="5046281262to9327109712" />
<connection from="9327109712to5046281262" to="5046281262to5046281293" />
<connection from="5046281293to5046281262" to="5046281262to5046281719" />
<connection from="5046281293to5046281262" to="5046281262to9327109712" />
<connection from="5046281293to5046281262" to="5046281262to5046281293" />
<connection from="5046281262to5046281293" to="5046281293to5046281262" />
<connection from="5046281262to5046281293" to="5046281293to5046281637" />
<connection from="5046281262to5046281293" to="5046281293to9949523574" />
<connection from="5046281637to5046281293" to="5046281293to5046281262" />
<connection from="5046281637to5046281293" to="5046281293to5046281637" />
<connection from="5046281637to5046281293" to="5046281293to9949523574" />
<connection from="9949523574to5046281293" to="5046281293to5046281262" />
<connection from="9949523574to5046281293" to="5046281293to5046281637" />
<connection from="9949523574to5046281293" to="5046281293to9949523574" />
<connection from="5046281250to5046281316" to="5046281316to5046281250" />
<connection from="5046281250to5046281316" to="5046281316to9947072294" />
<connection from="5046281250to5046281316" to="5046281316to5046281674" />
<connection from="9947072294to5046281316" to="5046281316to5046281250" />
<connection from="9947072294to5046281316" to="5046281316to9947072294" />
<connection from="9947072294to5046281316" to="5046281316to5046281674" />
<connection from="5046281674to5046281316" to="5046281316to5046281250" />
<connection from="5046281674to5046281316" to="5046281316to9947072294" />
<connection from="5046281674to5046281316" to="5046281316to5046281674" />
<connection from="5046281637to5046281635" to="5046281635to5046281637" />
<connection from="5046281637to5046281635" to="5046281635to5046281674" />
<connection from="5046281637to5046281635" to="5046281635to9504677033" />
<connection from="5046281674to5046281635" to="5046281635to5046281637" />
<connection from="5046281674to5046281635" to="5046281635to5046281674" />
<connection from="5046281674to5046281635" to="5046281635to9504677033" />
<connection from="9504677033to5046281635" to="5046281635to5046281637" />
<connection from="9504677033to5046281635" to="5046281635to5046281674" />
<connection from="9504677033to5046281635" to="5046281635to9504677033" />
<connection from="5046281253to5046281637" to="5046281637to5046281253" />
<connection from="5046281253to5046281637" to="5046281637to5046281293" />
<connection from="5046281253to5046281637" to="5046281637to5046281635" />
<connection from="5046281293to5046281637" to="5046281637to5046281253" />
<connection from="5046281293to5046281637" to="5046281637to5046281293" />
<connection from="5046281293to5046281637" to="5046281637to5046281635" />
<connection from="5046281635to5046281637" to="5046281637to5046281253" />
<connection from="5046281635to5046281637" to="5046281637to5046281293" />
<connection from="5046281635to5046281637" to="5046281637to5046281635" />
<connection from="5046281665to5046281663" to="5046281663to5046281665" />
<connection from="5046281665to5046281663" to="5046281663to9157237011" />
<connection from="5046281665to5046281663" to="5046281663to5046281677" />
<connection from="9157237011to5046281663" to="5046281663to5046281665" />
<connection from="9157237011to5046281663" to="5046281663to9157237011" />
<connection from="9157237011to5046281663" to="5046281663to5046281677" />
<connection from="5046281677to5046281663" to="5046281663to5046281665" />
<connection from="5046281677to5046281663" to="5046281663to9157237011" />
<connection from="5046281677to5046281663" to="5046281663to5046281677" />
<connection from="5046281663to5046281665" to="5046281665to5046281663" />
<connection from="5046281663to5046281665" to="5046281665to9504677033" />
<connection from="5046281663to5046281665" to="5046281665to9503979833" />
<connection from="9504677033to5046281665" to="5046281665to5046281663" />
<connection from="9504677033to5046281665" to="5046281665to9504677033" />
<connection from="9504677033to5046281665" to="5046281665to9503979833" />
<connection from="9503979833to5046281665" to="5046281665to5046281663" />
<connection from="9503979833to5046281665" to="5046281665to9504677033" />
<connection from="9503979833to5046281665" to="5046281665to9503979833" />
<connection from="5046281316to5046281674" to="5046281674to5046281316" />
<connection from="5046281316to5046281674" to="5046281674to5046281635" />
<connection from="5046281316to5046281674" to="5046281674to5046281691" />
<connection from="5046281635to5046281674" to="5046281674to5046281316" />
<connection from="5046281635to5046281674" to="5046281674to5046281635" />
<connection from="5046281635to5046281674" to="5046281674to5046281691" />
<connection from="5046281691to5046281674" to="5046281674to5046281316" />
<connection from="5046281691to5046281674" to="5046281674to5046281635" />
<connection from="5046281691to5046281674" to="5046281674to5046281691" />
<connection from="5046281663to5046281677" to="5046281677to5046281663" />
<connection from="5046281663to5046281677" to="5046281677to5046281678" />
<connection from="5046281663to5046281677" to="5046281677to5046281691" />
<connection from="5046281678to5046281677" to="5046281677to5046281663" />
<connection from="5046281678to5046281677" to="5046281677to5046281678" />
<connection from="5046281678to5046281677" to="5046281677to5046281691" />
<connection from="5046281691to5046281677" to="5046281677to5046281663" />
<connection from="5046281691to5046281677" to="5046281677to5046281678" />
<connection from="5046281691to5046281677" to="5046281677to5046281691" />
<connection from="5046281677to5046281678" to="5046281678to5046281677" />
<connection from="5046281674to5046281691" to="5046281691to5046281674" />
<connection from="5046281674to5046281691" to="5046281691to5046281677" />
<connection from="5046281674to5046281691" to="5046281691to9504677035" />
<connection from="5046281677to5046281691" to="5046281691to5046281674" />
<connection from="5046281677to5046281691" to="5046281691to5046281677" />
<connection from="5046281677to5046281691" to="5046281691to9504677035" />
<connection from="9504677035to5046281691" to="5046281691to5046281674" />
<connection from="9504677035to5046281691" to="5046281691to5046281677" />
<connection from="9504677035to5046281691" to="5046281691to9504677035" />
<connection from="5046281224to5046281696" to="5046281696to5046281224" />
<connection from="5046281224to5046281696" to="5046281696to9156964135" />
<connection from="5046281224to5046281696" to="5046281696to9157237011" />
<connection from="9156964135to5046281696" to="5046281696to5046281224" />
<connection from="9156964135to5046281696" to="5046281696to9156964135" />
<connection from="9156964135to5046281696" to="5046281696to9157237011" />
<connection from="9157237011to5046281696" to="5046281696to5046281224" />
<connection from="9157237011to5046281696" to="5046281696to9156964135" />
<connection from="9157237011to5046281696" to="5046281696to9157237011" />
<connection from="5046281706to5046281698" to="5046281698to5046281706" />
<connection from="5046281706to5046281698" to="5046281698to9156964084" />
<connection from="5046281706to5046281698" to="5046281698to9156968716" />
<connection from="5046281706to5046281698" to="5046281698to9156964086" />
<connection from="9156964084to5046281698" to="5046281698to5046281706" />
<connection from="9156964084to5046281698" to="5046281698to9156964084" />
<connection from="9156964084to5046281698" to="5046281698to9156968716" />
<connection from="9156964084to5046281698" to="5046281698to9156964086" />
<connection from="9156968716to5046281698" to="5046281698to5046281706" />
<connection from="9156968716to5046281698" to="5046281698to9156964084" />
<connection from="9156968716to5046281698" to="5046281698to9156968716" />
<connection from="9156968716to5046281698" to="5046281698to9156964086" />
<connection from="9156964086to5046281698" to="5046281698to5046281706" />
<connection from="9156964086to5046281698" to="5046281698to9156964084" />
<connection from="9156964086to5046281698" to="5046281698to9156968716" />
<connection from="9156964086to5046281698" to="5046281698to9156964086" />
<connection from="5046281698to5046281706" to="5046281706to5046281698" />
<connection from="5046281698to5046281706" to="5046281706to9156964084" />
<connection from="5046281698to5046281706" to="5046281706to9156964133" />
<connection from="9156964084to5046281706" to="5046281706to5046281698" />
<connection from="9156964084to5046281706" to="5046281706to9156964084" />
<connection from="9156964084to5046281706" to="5046281706to9156964133" />
<connection from="9156964133to5046281706" to="5046281706to5046281698" />
<connection from="9156964133to5046281706" to="5046281706to9156964084" />
<connection from="9156964133to5046281706" to="5046281706to9156964133" />
<connection from="5046281262to5046281719" to="5046281719to5046281262" />
<connection from="5046281262to5046281719" to="5046281719to5046281720" />
<connection from="5046281262to5046281719" to="5046281719to9503937179" />
<connection from="5046281720to5046281719" to="5046281719to5046281262" />
<connection from="5046281720to5046281719" to="5046281719to5046281720" />
<connection from="5046281720to5046281719" to="5046281719to9503937179" />
<connection from="9503937179to5046281719" to="5046281719to5046281262" />
<connection from="9503937179to5046281719" to="5046281719to5046281720" />
<connection from="9503937179to5046281719" to="5046281719to9503937179" />
<connection from="5046281719to5046281720" to="5046281720to5046281719" />
<connection from="5046281719to5046281720" to="5046281720to9504677033" />
<connection from="5046281719to5046281720" to="5046281720to9445315205" />
<connection from="9504677033to5046281720" to="5046281720to5046281719" />
<connection from="9504677033to5046281720" to="5046281720to9504677033" />
<connection from="9504677033to5046281720" to="5046281720to9445315205" />
<connection from="9445315205to5046281720" to="5046281720to5046281719" />
<connection from="9445315205to5046281720" to="5046281720to9504677033" />
<connection from="9445315205to5046281720" to="5046281720to9445315205" />
<connection from="9327109707to5046281923" to="5046281923to9327109707" />
<connection from="9327109707to5046281923" to="5046281923to9327109713" />
<connection from="9327109707to5046281923" to="5046281923to9503937179" />
<connection from="9327109713to5046281923" to="5046281923to9327109707" />
<connection from="9327109713to5046281923" to="5046281923to9327109713" />
<connection from="9327109713to5046281923" to="5046281923to9503937179" />
<connection from="9503937179to5046281923" to="5046281923to9327109707" />
<connection from="9503937179to5046281923" to="5046281923to9327109713" />
<connection from="9503937179to5046281923" to="5046281923to9503937179" />
<connection from="5046281935to5046281932" to="5046281932to5046281935" />
<connection from="5046281935to5046281933" to="5046281933to5046281935" />
<connection from="5046281231to5046281934" to="5046281934to5046281231" />
<connection from="5046281231to5046281934" to="5046281934to5046281935" />
<connection from="5046281935to5046281934" to="5046281934to5046281231" />
<connection from="5046281935to5046281934" to="5046281934to5046281935" />
<connection from="5046281932to5046281935" to="5046281935to5046281932" />
<connection from="5046281932to5046281935" to="5046281935to5046281933" />
<connection from="5046281932to5046281935" to="5046281935to5046281934" />
<connection from="5046281933to5046281935" to="5046281935to5046281932" />
<connection from="5046281933to5046281935" to="5046281935to5046281933" />
<connection from="5046281933to5046281935" to="5046281935to5046281934" />
<connection from="5046281934to5046281935" to="5046281935to5046281932" />
<connection from="5046281934to5046281935" to="5046281935to5046281933" />
<connection from="5046281934to5046281935" to="5046281935to5046281934" />
<connection from="9445315190to5268161701" to="5268161701to9445315190" />
<connection from="9445315190to5268161701" to="5268161701to9503951322" />
<connection from="9503951322to5268161701" to="5268161701to9445315190" />
<connection from="9503951322to5268161701" to="5268161701to9503951322" />
<connection from="5046281698to9156964084" to="9156964084to5046281698" />
<connection from="5046281698to9156964084" to="9156964084to5046281706" />
<connection from="5046281698to9156964084" to="9156964084to9156968716" />
<connection from="5046281706to9156964084" to="9156964084to5046281698" />
<connection from="5046281706to9156964084" to="9156964084to5046281706" />
<connection from="5046281706to9156964084" to="9156964084to9156968716" />
<connection from="9156968716to9156964084" to="9156964084to5046281698" />
<connection from="9156968716to9156964084" to="9156964084to5046281706" />
<connection from="9156968716to9156964084" to="9156964084to9156968716" />
<connection from="5046281698to9156964086" to="9156964086to5046281698" />
<connection from="5046281698to9156964086" to="9156964086to9503979830" />
<connection from="9503979830to9156964086" to="9156964086to5046281698" />
<connection from="9503979830to9156964086" to="9156964086to9503979830" />
<connection from="9156964133to9156964132" to="9156964132to9156964133" />
<connection from="9156964133to9156964132" to="9156964132to9156964140" />
<connection from="9156964133to9156964132" to="9156964132to9156964134" />
<connection from="9156964140to9156964132" to="9156964132to9156964133" />
<connection from="9156964140to9156964132" to="9156964132to9156964140" />
<connection from="9156964140to9156964132" to="9156964132to9156964134" />
<connection from="9156964134to9156964132" to="9156964132to9156964133" />
<connection from="9156964134to9156964132" to="9156964132to9156964140" />
<connection from="9156964134to9156964132" to="9156964132to9156964134" />
<connection from="5046281706to9156964133" to="9156964133to5046281706" />
<connection from="5046281706to9156964133" to="9156964133to9156964132" />
<connection from="5046281706to9156964133" to="9156964133to9156964135" />
<connection from="9156964132to9156964133" to="9156964133to5046281706" />
<connection from="9156964132to9156964133" to="9156964133to9156964132" />
<connection from="9156964132to9156964133" to="9156964133to9156964135" />
<connection from="9156964135to9156964133" to="9156964133to5046281706" />
<connection from="9156964135to9156964133" to="9156964133to9156964132" />
<connection from="9156964135to9156964133" to="9156964133to9156964135" />
<connection from="9156964132to9156964134" to="9156964134to9156964132" />
<connection from="9156964132to9156964134" to="9156964134to9156964135" />
<connection from="9156964132to9156964134" to="9156964134to9156964136" />
<connection from="9156964135to9156964134" to="9156964134to9156964132" />
<connection from="9156964135to9156964134" to="9156964134to9156964135" />
<connection from="9156964135to9156964134" to="9156964134to9156964136" />
<connection from="9156964136to9156964134" to="9156964134to9156964132" />
<connection from="9156964136to9156964134" to="9156964134to9156964135" />
<connection from="9156964136to9156964134" to="9156964134to9156964136" />
<connection from="5046281696to9156964135" to="9156964135to5046281696" />
<connection from="5046281696to9156964135" to="9156964135to9156964133" />
<connection from="5046281696to9156964135" to="9156964135to9156964134" />
<connection from="9156964133to9156964135" to="9156964135to5046281696" />
<connection from="9156964133to9156964135" to="9156964135to9156964133" />
<connection from="9156964133to9156964135" to="9156964135to9156964134" />
<connection from="9156964134to9156964135" to="9156964135to5046281696" />
<connection from="9156964134to9156964135" to="9156964135to9156964133" />
<connection from="9156964134to9156964135" to="9156964135to9156964134" />
<connection from="5046281224to9156964136" to="9156964136to5046281224" />
<connection from="5046281224to9156964136" to="9156964136to9156964134" />
<connection from="5046281224to9156964136" to="9156964136to9156964139" />
<connection from="9156964134to9156964136" to="9156964136to5046281224" />
<connection from="9156964134to9156964136" to="9156964136to9156964134" />
<connection from="9156964134to9156964136" to="9156964136to9156964139" />
<connection from="9156964139to9156964136" to="9156964136to5046281224" />
<connection from="9156964139to9156964136" to="9156964136to9156964134" />
<connection from="9156964139to9156964136" to="9156964136to9156964139" />
<connection from="9156964136to9156964139" to="9156964139to9156964136" />
<connection from="9156964136to9156964139" to="9156964139to9897304140" />
<connection from="9156964136to9156964139" to="9156964139to9156968690" />
<connection from="9156964136to9156964139" to="9156964139to9156964140" />
<connection from="9897304140to9156964139" to="9156964139to9156964136" />
<connection from="9897304140to9156964139" to="9156964139to9897304140" />
<connection from="9897304140to9156964139" to="9156964139to9156968690" />
<connection from="9897304140to9156964139" to="9156964139to9156964140" />
<connection from="9156968690to9156964139" to="9156964139to9156964136" />
<connection from="9156968690to9156964139" to="9156964139to9897304140" />
<connection from="9156968690to9156964139" to="9156964139to9156968690" />
<connection from="9156968690to9156964139" to="9156964139to9156964140" />
<connection from="9156964140to9156964139" to="9156964139to9156964136" />
<connection from="9156964140to9156964139" to="9156964139to9897304140" />
<connection from="9156964140to9156964139" to="9156964139to9156968690" />
<connection from="9156964140to9156964139" to="9156964139to9156964140" />
<connection from="9156964132to9156964140" to="9156964140to9156964132" />
<connection from="9156964132to9156964140" to="9156964140to9156964139" />
<connection from="9156964132to9156964140" to="9156964140to9156968716" />
<connection from="9156964139to9156964140" to="9156964140to9156964132" />
<connection from="9156964139to9156964140" to="9156964140to9156964139" />
<connection from="9156964139to9156964140" to="9156964140to9156968716" />
<connection from="9156968716to9156964140" to="9156964140to9156964132" />
<connection from="9156968716to9156964140" to="9156964140to9156964139" />
<connection from="9156968716to9156964140" to="9156964140to9156968716" />
<connection from="9156968689to9156968687" to="9156968687to9156968689" />
<connection from="9156968689to9156968687" to="9156968687to9156968690" />
<connection from="9156968690to9156968687" to="9156968687to9156968689" />
<connection from="9156968690to9156968687" to="9156968687to9156968690" />
<connection from="5046281224to9156968689" to="9156968689to5046281224" />
<connection from="5046281224to9156968689" to="9156968689to9156968687" />
<connection from="5046281224to9156968689" to="9156968689to9947072295" />
<connection from="9156968687to9156968689" to="9156968689to5046281224" />
<connection from="9156968687to9156968689" to="9156968689to9156968687" />
<connection from="9156968687to9156968689" to="9156968689to9947072295" />
<connection from="9947072295to9156968689" to="9156968689to5046281224" />
<connection from="9947072295to9156968689" to="9156968689to9156968687" />
<connection from="9947072295to9156968689" to="9156968689to9947072295" />
<connection from="9156964139to9156968690" to="9156968690to9156964139" />
<connection from="9156964139to9156968690" to="9156968690to9156968687" />
<connection from="9156964139to9156968690" to="9156968690to9156968710" />
<connection from="9156968687to9156968690" to="9156968690to9156964139" />
<connection from="9156968687to9156968690" to="9156968690to9156968687" />
<connection from="9156968687to9156968690" to="9156968690to9156968710" />
<connection from="9156968710to9156968690" to="9156968690to9156964139" />
<connection from="9156968710to9156968690" to="9156968690to9156968687" />
<connection from="9156968710to9156968690" to="9156968690to9156968710" />
<connection from="9156968690to9156968710" to="9156968710to9156968690" />
<connection from="9156968690to9156968710" to="9156968710to9897304140" />
<connection from="9897304140to9156968710" to="9156968710to9156968690" />
<connection from="9897304140to9156968710" to="9156968710to9897304140" />
<connection from="5046281698to9156968716" to="9156968716to5046281698" />
<connection from="5046281698to9156968716" to="9156968716to9156964084" />
<connection from="5046281698to9156968716" to="9156968716to9156964140" />
<connection from="9156964084to9156968716" to="9156968716to5046281698" />
<connection from="9156964084to9156968716" to="9156968716to9156964084" />
<connection from="9156964084to9156968716" to="9156968716to9156964140" />
<connection from="9156964140to9156968716" to="9156968716to5046281698" />
<connection from="9156964140to9156968716" to="9156968716to9156964084" />
<connection from="9156964140to9156968716" to="9156968716to9156964140" />
<connection from="5046281231to9156969777" to="9156969777to5046281231" />
<connection from="9504677030to9156969785" to="9156969785to9504677030" />
<connection from="9504677030to9156969785" to="9156969785to9949523574" />
<connection from="9504677030to9156969785" to="9156969785to9327109712" />
<connection from="9949523574to9156969785" to="9156969785to9504677030" />
<connection from="9949523574to9156969785" to="9156969785to9949523574" />
<connection from="9949523574to9156969785" to="9156969785to9327109712" />
<connection from="9327109712to9156969785" to="9156969785to9504677030" />
<connection from="9327109712to9156969785" to="9156969785to9949523574" />
<connection from="9327109712to9156969785" to="9156969785to9327109712" />
<connection from="9157237012to9157237010" to="9157237010to9157237012" />
<connection from="9157237012to9157237010" to="9157237010to9503979839" />
<connection from="9157237012to9157237010" to="9157237010to9157237011" />
<connection from="9157237012to9157237010" to="9157237010to9503979840" />
<connection from="9503979839to9157237010" to="9157237010to9157237012" />
<connection from="9503979839to9157237010" to="9157237010to9503979839" />
<connection from="9503979839to9157237010" to="9157237010to9157237011" />
<connection from="9503979839to9157237010" to="9157237010to9503979840" />
<connection from="9157237011to9157237010" to="9157237010to9157237012" />
<connection from="9157237011to9157237010" to="9157237010to9503979839" />
<connection from="9157237011to9157237010" to="9157237010to9157237011" />
<connection from="9157237011to9157237010" to="9157237010to9503979840" />
<connection from="9503979840to9157237010" to="9157237010to9157237012" />
<connection from="9503979840to9157237010" to="9157237010to9503979839" />
<connection from="9503979840to9157237010" to="9157237010to9157237011" />
<connection from="9503979840to9157237010" to="9157237010to9503979840" />
<connection from="5046281663to9157237011" to="9157237011to5046281663" />
<connection from="5046281663to9157237011" to="9157237011to5046281696" />
<connection from="5046281663to9157237011" to="9157237011to9157237010" />
<connection from="5046281696to9157237011" to="9157237011to5046281663" />
<connection from="5046281696to9157237011" to="9157237011to5046281696" />
<connection from="5046281696to9157237011" to="9157237011to9157237010" />
<connection from="9157237010to9157237011" to="9157237011to5046281663" />
<connection from="9157237010to9157237011" to="9157237011to5046281696" />
<connection from="9157237010to9157237011" to="9157237011to9157237010" />
<connection from="9157237010to9157237012" to="9157237012to9157237010" />
<connection from="5046281923to9327109707" to="9327109707to5046281923" />
<connection from="5046281923to9327109707" to="9327109707to9327112917" />
<connection from="5046281923to9327109707" to="9327109707to9327109713" />
<connection from="9327112917to9327109707" to="9327109707to5046281923" />
<connection from="9327112917to9327109707" to="9327109707to9327112917" />