<connections>
<connection from="301037262to301037251" to="301037251to301037262" />
<connection from="301037262to301037251" to="301037251to3636291416" />
<connection from="301037262to301037251" to="301037251to5006266347" />
<connection from="3636291416to301037251" to="301037251to301037262" />
<connection from="3636291416to301037251" to="301037251to3636291416" />
<connection from="3636291416to301037251" to="301037251to5006266347" />
<connection from="5006266347to301037251" to="301037251to301037262" />
<connection from="5006266347to301037251" to="301037251to3636291416" />
<connection from="5006266347to301037251" to="301037251to5006266347" />
<connection from="564483463to301037252" to="301037252to564483463" />
<connection from="564483463to301037252" to="301037252to4233527012" />
<connection from="564483463to301037252" to="301037252to564483461" />
<connection from="4233527012to301037252" to="301037252to564483463" />
<connection from="4233527012to301037252" to="301037252to4233527012" />
<connection from="4233527012to301037252" to="301037252to564483461" />
<connection from="564483461to301037252" to="301037252to564483463" />
<connection from="564483461to301037252" to="301037252to4233527012" />
<connection from="564483461to301037252" to="301037252to564483461" />
<connection from="10049590718to301037253" to="301037253to10049590718" />
<connection from="10049590718to301037253" to="301037253to4999072803" />
<connection from="10049590718to301037253" to="301037253to564483461" />
<connection from="4999072803to301037253" to="301037253to10049590718" />
<connection from="4999072803to301037253" to="301037253to4999072803" />
<connection from="4999072803to301037253" to="301037253to564483461" />
<connection from="564483461to301037253" to="301037253to10049590718" />
<connection from="564483461to301037253" to="301037253to4999072803" />
<connection from="564483461to301037253" to="301037253to564483461" />
<connection from="4233527085to301037254" to="301037254to4233527085" />
<connection from="4233527085to301037254" to="301037254to473651125" />
<connection from="4233527085to301037254" to="301037254to564483517" />
<connection from="473651125to301037254" to="301037254to4233527085" />
<connection from="473651125to301037254" to="301037254to473651125" />
<connection from="473651125to301037254" to="301037254to564483517" />
<connection from="564483517to301037254" to="301037254to4233527085" />
<connection from="564483517to301037254" to="301037254to473651125" />
<connection from="564483517to301037254" to="301037254to564483517" />
<connection from="10049590718to301037255" to="301037255to10049590718" />
<connection from="10049590718to301037255" to="301037255to4233524684" />
<connection from="10049590718to301037255" to="301037255to4999014151" />
<connection from="4233524684to301037255" to="301037255to10049590718" />
<connection from="4233524684to301037255" to="301037255to4233524684" />
<connection from="4233524684to301037255" to="301037255to4999014151" />
<connection from="4999014151to301037255" to="301037255to10049590718" />
<connection from="4999014151to301037255" to="301037255to4233524684" />
<connection from="4999014151to301037255" to="301037255to4999014151" />
<connection from="301037251to301037262" to="301037262to301037251" />
<connection from="301037251to301037262" to="301037262to9867267941" />
<connection from="301037251to301037262" to="301037262to5253345429" />
<connection from="9867267941to301037262" to="301037262to301037251" />
<connection from="9867267941to301037262" to="301037262to9867267941" />
<connection from="9867267941to301037262" to="301037262to5253345429" />
<connection from="5253345429to301037262" to="301037262to301037251" />
<connection from="5253345429to301037262" to="301037262to9867267941" />
<connection from="5253345429to301037262" to="301037262to5253345429" />
<connection from="6095470542to301037265" to="301037265to6095470542" />
<connection from="6095470542to301037265" to="301037265to5006266354" />
<connection from="5006266354to301037265" to="301037265to6095470542" />
<connection from="5006266354to301037265" to="301037265to5006266354" />
<connection from="301037254to473651125" to="473651125to301037254" />
<connection from="301037254to473651125" to="473651125to4999072816" />
<connection from="301037254to473651125" to="473651125to564483496" />
<connection from="4999072816to473651125" to="473651125to301037254" />
<connection from="4999072816to473651125" to="473651125to4999072816" />
<connection from="4999072816to473651125" to="473651125to564483496" />
<connection from="564483496to473651125" to="473651125to301037254" />
<connection from="564483496to473651125" to="473651125to4999072816" />
<connection from="564483496to473651125" to="473651125to564483496" />
<connection from="4233524655to564483317" to="564483317to4233524655" />
<connection from="4233524655to564483317" to="564483317to4233524647" />
<connection from="4233524655to564483317" to="564483317to4233524630" />
<connection from="4233524655to564483317" to="564483317to4233524657" />
<connection from="4233524647to564483317" to="564483317to4233524655" />
<connection from="4233524647to564483317" to="564483317to4233524647" />
<connection from="4233524647to564483317" to="564483317to4233524630" />
<connection from="4233524647to564483317" to="564483317to4233524657" />
<connection from="4233524630to564483317" to="564483317to4233524655" />
<connection from="4233524630to564483317" to="564483317to4233524647" />
<connection from="4233524630to564483317" to="564483317to4233524630" />
<connection from="4233524630to564483317" to="564483317to4233524657" />
<connection from="4233524657to564483317" to="564483317to4233524655" />
<connection from="4233524657to564483317" to="564483317to4233524647" />
<connection from="4233524657to564483317" to="564483317to4233524630" />
<connection from="4233524657to564483317" to="564483317to4233524657" />
<connection from="3636985386to564483459" to="564483459to3636985386" />
<connection from="3636985386to564483459" to="564483459to564483461" />
<connection from="3636985386to564483459" to="564483459to564483463" />
<connection from="564483461to564483459" to="564483459to3636985386" />
<connection from="564483461to564483459" to="564483459to564483461" />
<connection from="564483461to564483459" to="564483459to564483463" />
<connection from="564483463to564483459" to="564483459to3636985386" />
<connection from="564483463to564483459" to="564483459to564483461" />
<connection from="564483463to564483459" to="564483459to564483463" />
<connection from="301037253to564483461" to="564483461to301037253" />
<connection from="301037253to564483461" to="564483461to564483459" />
<connection from="301037253to564483461" to="564483461to301037252" />
<connection from="564483459to564483461" to="564483461to301037253" />
<connection from="564483459to564483461" to="564483461to564483459" />
<connection from="564483459to564483461" to="564483461to301037252" />
<connection from="301037252to564483461" to="564483461to301037253" />
<connection from="301037252to564483461" to="564483461to564483459" />
<connection from="301037252to564483461" to="564483461to301037252" />
<connection from="301037252to564483463" to="564483463to301037252" />
<connection from="301037252to564483463" to="564483463to3055043751" />
<connection from="301037252to564483463" to="564483463to564483459" />
<connection from="3055043751to564483463" to="564483463to301037252" />
<connection from="3055043751to564483463" to="564483463to3055043751" />
<connection from="3055043751to564483463" to="564483463to564483459" />
<connection from="564483459to564483463" to="564483463to301037252" />
<connection from="564483459to564483463" to="564483463to3055043751" />
<connection from="564483459to564483463" to="564483463to564483459" />
<connection from="473651125to564483496" to="564483496to473651125" />
<connection from="473651125to564483496" to="564483496to4233527053" />
<connection from="473651125to564483496" to="564483496to564483517" />
<connection from="4233527053to564483496" to="564483496to473651125" />
<connection from="4233527053to564483496" to="564483496to4233527053" />
<connection from="4233527053to564483496" to="564483496to564483517" />
<connection from="564483517to564483496" to="564483496to473651125" />
<connection from="564483517to564483496" to="564483496to4233527053" />
<connection from="564483517to564483496" to="564483496to564483517" />
<connection from="564483496to564483517" to="564483517to564483496" />
<connection from="564483496to564483517" to="564483517to4233527074" />
<connection from="564483496to564483517" to="564483517to301037254" />
<connection from="4233527074to564483517" to="564483517to564483496" />
<connection from="4233527074to564483517" to="564483517to4233527074" />
<connection from="4233527074to564483517" to="564483517to301037254" />
<connection from="301037254to564483517" to="564483517to564483496" />
<connection from="301037254to564483517" to="564483517to4233527074" />
<connection from="301037254to564483517" to="564483517to301037254" />
<connection from="4233524597to2102480543" to="2102480543to4233524597" />
<connection from="4233524597to2102480543" to="2102480543to4233654430" />
<connection from="4233524597to2102480543" to="2102480543to9186411596" />
<connection from="4233524597to2102480543" to="2102480543to4233524600" />
<connection from="4233654430to2102480543" to="2102480543to4233524597" />
<connection from="4233654430to2102480543" to="2102480543to4233654430" />
<connection from="4233654430to2102480543" to="2102480543to9186411596" />
<connection from="4233654430to2102480543" to="2102480543to4233524600" />
<connection from="9186411596to2102480543" to="2102480543to4233524597" />
<connection from="9186411596to2102480543" to="2102480543to4233654430" />
<connection from="9186411596to2102480543" to="2102480543to9186411596" />
<connection from="9186411596to2102480543" to="2102480543to4233524600" />
<connection from="4233524600to2102480543" to="2102480543to4233524597" />
<connection from="4233524600to2102480543" to="2102480543to4233654430" />
<connection from="4233524600to2102480543" to="2102480543to9186411596" />
<connection from="4233524600to2102480543" to="2102480543to4233524600" />
<connection from="4233654441to2102480576" to="2102480576to4233654441" />
<connection from="4233654441to2102480576" to="2102480576to4233654471" />
<connection from="4233654441to2102480576" to="2102480576to4233654506" />
<connection from="4233654441to2102480576" to="2102480576to4233654485" />
<connection from="4233654471to2102480576" to="2102480576to4233654441" />
<connection from="4233654471to2102480576" to="2102480576to4233654471" />
<connection from="4233654471to2102480576" to="2102480576to4233654506" />
<connection from="4233654471to2102480576" to="2102480576to4233654485" />
<connection from="4233654506to2102480576" to="2102480576to4233654441" />
<connection from="4233654506to2102480576" to="2102480576to4233654471" />
<connection from="4233654506to2102480576" to="2102480576to4233654506" />
<connection from="4233654506to2102480576" to="2102480576to4233654485" />
<connection from="4233654485to2102480576" to="2102480576to4233654441" />
<connection from="4233654485to2102480576" to="2102480576to4233654471" />
<connection from="4233654485to2102480576" to="2102480576to4233654506" />
<connection from="4233654485to2102480576" to="2102480576to4233654485" />
<connection from="4233524615to2102480797" to="2102480797to4233524615" />
<connection from="4233524615to2102480797" to="2102480797to4233524611" />
<connection from="4233524615to2102480797" to="2102480797to4233654563" />
<connection from="4233524611to2102480797" to="2102480797to4233524615" />
<connection from="4233524611to2102480797" to="2102480797to4233524611" />
<connection from="4233524611to2102480797" to="2102480797to4233654563" />
<connection from="4233654563to2102480797" to="2102480797to4233524615" />
<connection from="4233654563to2102480797" to="2102480797to4233524611" />
<connection from="4233654563to2102480797" to="2102480797to4233654563" />
<connection from="2102480801to2102480799" to="2102480799to2102480801" />
<connection from="2102480801to2102480799" to="2102480799to4233654507" />
<connection from="2102480801to2102480799" to="2102480799to2102480800" />
<connection from="4233654507to2102480799" to="2102480799to2102480801" />
<connection from="4233654507to2102480799" to="2102480799to4233654507" />
<connection from="4233654507to2102480799" to="2102480799to2102480800" />
<connection from="2102480800to2102480799" to="2102480799to2102480801" />
<connection from="2102480800to2102480799" to="2102480799to4233654507" />
<connection from="2102480800to2102480799" to="2102480799to2102480800" />
<connection from="2102480799to2102480800" to="2102480800to2102480799" />
<connection from="2102480799to2102480800" to="2102480800to4233654565" />
<connection from="2102480799to2102480800" to="2102480800to4233524618" />
<connection from="2102480799to2102480800" to="2102480800to2102480803" />
<connection from="4233654565to2102480800" to="2102480800to2102480799" />
<connection from="4233654565to2102480800" to="2102480800to4233654565" />
<connection from="4233654565to2102480800" to="2102480800to4233524618" />
<connection from="4233654565to2102480800" to="2102480800to2102480803" />
<connection from="4233524618to2102480800" to="2102480800to2102480799" />
<connection from="4233524618to2102480800" to="2102480800to4233654565" />
<connection from="4233524618to2102480800" to="2102480800to4233524618" />
<connection from="4233524618to2102480800" to="2102480800to2102480803" />
<connection from="2102480803to2102480800" to="2102480800to2102480799" />
<connection from="2102480803to2102480800" to="2102480800to4233654565" />
<connection from="2102480803to2102480800" to="2102480800to4233524618" />
<connection from="2102480803to2102480800" to="2102480800to2102480803" />
<connection from="2102480799to2102480801" to="2102480801to2102480799" />
<connection from="2102480799to2102480801" to="2102480801to4233524618" />
<connection from="4233524618to2102480801" to="2102480801to2102480799" />
<connection from="4233524618to2102480801" to="2102480801to4233524618" />
<connection from="2102480800to2102480803" to="2102480803to2102480800" />
<connection from="2102480800to2102480803" to="2102480803to4233524619" />
<connection from="2102480800to2102480803" to="2102480803to4233524625" />
<connection from="2102480800to2102480803" to="2102480803to2102480808" />
<connection from="4233524619to2102480803" to="2102480803to2102480800" />
<connection from="4233524619to2102480803" to="2102480803to4233524619" />
<connection from="4233524619to2102480803" to="2102480803to4233524625" />
<connection from="4233524619to2102480803" to="2102480803to2102480808" />
<connection from="4233524625to2102480803" to="2102480803to2102480800" />
<connection from="4233524625to2102480803" to="2102480803to4233524619" />
<connection from="4233524625to2102480803" to="2102480803to4233524625" />
<connection from="4233524625to2102480803" to="2102480803to2102480808" />
<connection from="2102480808to2102480803" to="2102480803to2102480800" />
<connection from="2102480808to2102480803" to="2102480803to4233524619" />
<connection from="2102480808to2102480803" to="2102480803to4233524625" />
<connection from="2102480808to2102480803" to="2102480803to2102480808" />
<connection from="9186411589to2102480805" to="2102480805to9186411589" />
<connection from="9186411589to2102480805" to="2102480805to4233524646" />
<connection from="9186411589to2102480805" to="2102480805to10049605857" />
<connection from="4233524646to2102480805" to="2102480805to9186411589" />
<connection from="4233524646to2102480805" to="2102480805to4233524646" />
<connection from="4233524646to2102480805" to="2102480805to10049605857" />
<connection from="10049605857to2102480805" to="2102480805to9186411589" />
<connection from="10049605857to2102480805" to="2102480805to4233524646" />
<connection from="10049605857to2102480805" to="2102480805to10049605857" />
<connection from="2102480803to2102480808" to="2102480808to2102480803" />
<connection from="2102480803to2102480808" to="2102480808to4233524646" />
<connection from="4233524646to2102480808" to="2102480808to2102480803" />
<connection from="4233524646to2102480808" to="2102480808to4233524646" />
<connection from="5548736268to2800415501" to="2800415501to5548736268" />
<connection from="5548736268to2800415501" to="2800415501to4233524625" />
<connection from="5548736268to2800415501" to="2800415501to5548736265" />
<connection from="4233524625to2800415501" to="2800415501to5548736268" />
<connection from="4233524625to2800415501" to="2800415501to4233524625" />
<connection from="4233524625to2800415501" to="2800415501to5548736265" />
<connection from="5548736265to2800415501" to="2800415501to5548736268" />
<connection from="5548736265to2800415501" to="2800415501to4233524625" />
<connection from="5548736265to2800415501" to="2800415501to5548736265" />
<connection from="2800415522to2800415517" to="2800415517to2800415522" />
<connection from="2800415522to2800415517" to="2800415517to5548736271" />
<connection from="2800415522to2800415517" to="2800415517to9186468977" />
<connection from="5548736271to2800415517" to="2800415517to2800415522" />
<connection from="5548736271to2800415517" to="2800415517to5548736271" />
<connection from="5548736271to2800415517" to="2800415517to9186468977" />
<connection from="9186468977to2800415517" to="2800415517to2800415522" />
<connection from="9186468977to2800415517" to="2800415517to5548736271" />
<connection from="9186468977to2800415517" to="2800415517to9186468977" />
<connection from="2800415517to2800415522" to="2800415522to2800415517" />
<connection from="2800415517to2800415522" to="2800415522to5006266354" />
<connection from="2800415517to2800415522" to="2800415522to5548736264" />
<connection from="5006266354to2800415522" to="2800415522to2800415517" />
<connection from="5006266354to2800415522" to="2800415522to5006266354" />
<connection from="5006266354to2800415522" to="2800415522to5548736264" />
<connection from="5548736264to2800415522" to="2800415522to2800415517" />
<connection from="5548736264to2800415522" to="2800415522to5006266354" />
<connection from="5548736264to2800415522" to="2800415522to5548736264" />
<connection from="9865522290to3055043750" to="3055043750to9865522290" />
<connection from="9865522290to3055043750" to="3055043750to3055043751" />
<connection from="9865522290to3055043750" to="3055043750to4233527014" />
<connection from="3055043751to3055043750" to="3055043750to9865522290" />
<connection from="3055043751to3055043750" to="3055043750to3055043751" />
<connection from="3055043751to3055043750" to="3055043750to4233527014" />
<connection from="4233527014to3055043750" to="3055043750to9865522290" />
<connection from="4233527014to3055043750" to="3055043750to3055043751" />
<connection from="4233527014to3055043750" to="3055043750to4233527014" />
<connection from="564483463to3055043751" to="3055043751to564483463" />
<connection from="564483463to3055043751" to="3055043751to3055043750" />
<connection from="564483463to3055043751" to="3055043751to9835121155" />
<connection from="564483463to3055043751" to="3055043751to10049766940" />
<connection from="3055043750to3055043751" to="3055043751to564483463" />
<connection from="3055043750to3055043751" to="3055043751to3055043750" />
<connection from="3055043750to3055043751" to="3055043751to9835121155" />
<connection from="3055043750to3055043751" to="3055043751to10049766940" />
<connection from="9835121155to3055043751" to="3055043751to564483463" />
<connection from="9835121155to3055043751" to="3055043751to3055043750" />
<connection from="9835121155to3055043751" to="3055043751to9835121155" />
<connection from="9835121155to3055043751" to="3055043751to10049766940" />
<connection from="10049766940to3055043751" to="3055043751to564483463" />
<connection from="10049766940to3055043751" to="3055043751to3055043750" />
<connection from="10049766940to3055043751" to="3055043751to9835121155" />
<connection from="10049766940to3055043751" to="3055043751to10049766940" />
<connection from="3178456078to3055043752" to="3055043752to3178456078" />
<connection from="3178456078to3055043752" to="3055043752to4999072803" />
<connection from="3178456078to3055043752" to="3055043752to4999072808" />
<connection from="3178456078to3055043752" to="3055043752to6758737653" />
<connection from="4999072803to3055043752" to="3055043752to3178456078" />
<connection from="4999072803to3055043752" to="3055043752to4999072803" />
<connection from="4999072803to3055043752" to="3055043752to4999072808" />
<connection from="4999072803to3055043752" to="3055043752to6758737653" />
<connection from="4999072808to3055043752" to="3055043752to3178456078" />
<connection from="4999072808to3055043752" to="3055043752to4999072803" />
<connection from="4999072808to3055043752" to="3055043752to4999072808" />
<connection from="4999072808to3055043752" to="3055043752to6758737653" />
<connection from="6758737653to3055043752" to="3055043752to3178456078" />
<connection from="6758737653to3055043752" to="3055043752to4999072803" />
<connection from="6758737653to3055043752" to="3055043752to4999072808" />
<connection from="6758737653to3055043752" to="3055043752to6758737653" />
<connection from="3055043752to3178456078" to="3178456078to3055043752" />
<connection from="3055043752to3178456078" to="3178456078to4233527016" />
<connection from="3055043752to3178456078" to="3178456078to4233527043" />
<connection from="3055043752to3178456078" to="3178456078to9835228889" />
<connection from="4233527016to3178456078" to="3178456078to3055043752" />
<connection from="4233527016to3178456078" to="3178456078to4233527016" />
<connection from="4233527016to3178456078" to="3178456078to4233527043" />
<connection from="4233527016to3178456078" to="3178456078to9835228889" />
<connection from="4233527043to3178456078" to="3178456078to3055043752" />
<connection from="4233527043to3178456078" to="3178456078to4233527016" />
<connection from="4233527043to3178456078" to="3178456078to4233527043" />
<connection from="4233527043to3178456078" to="3178456078to9835228889" />
<connection from="9835228889to3178456078" to="3178456078to3055043752" />
<connection from="9835228889to3178456078" to="3178456078to4233527016" />
<connection from="9835228889to3178456078" to="3178456078to4233527043" />
<connection from="9835228889to3178456078" to="3178456078to9835228889" />
<connection from="4233524660to3635907904" to="3635907904to4233524660" />
<connection from="4233524660to3635907904" to="3635907904to4233524657" />
<connection from="4233524660to3635907904" to="3635907904to3636985377" />
<connection from="4233524657to3635907904" to="3635907904to4233524660" />
<connection from="4233524657to3635907904" to="3635907904to4233524657" />
<connection from="4233524657to3635907904" to="3635907904to3636985377" />
<connection from="3636985377to3635907904" to="3635907904to4233524660" />
<connection from="3636985377to3635907904" to="3635907904to4233524657" />
<connection from="3636985377to3635907904" to="3635907904to3636985377" />
<connection from="4233524655to3635907910" to="3635907910to4233524655" />
<connection from="4233524655to3635907910" to="3635907910to9835190696" />
<connection from="4233524655to3635907910" to="3635907910to9835190697" />
<connection from="9835190696to3635907910" to="3635907910to4233524655" />
<connection from="9835190696to3635907910" to="3635907910to9835190696" />
<connection from="9835190696to3635907910" to="3635907910to9835190697" />
<connection from="9835190697to3635907910" to="3635907910to4233524655" />
<connection from="9835190697to3635907910" to="3635907910to9835190696" />
<connection from="9835190697to3635907910" to="3635907910to9835190697" />
<connection from="9835164854to3635907914" to="3635907914to9835164854" />
<connection from="9835164854to3635907914" to="3635907914to4233524645" />
<connection from="9835164854to3635907914" to="3635907914to9835164855" />
<connection from="4233524645to3635907914" to="3635907914to9835164854" />
<connection from="4233524645to3635907914" to="3635907914to4233524645" />
<connection from="4233524645to3635907914" to="3635907914to9835164855" />
<connection from="9835164855to3635907914" to="3635907914to9835164854" />
<connection from="9835164855to3635907914" to="3635907914to4233524645" />
<connection from="9835164855to3635907914" to="3635907914to9835164855" />
<connection from="4233524639to3635907923" to="3635907923to4233524639" />
<connection from="4233524639to3635907923" to="3635907923to9835170474" />
<connection from="4233524639to3635907923" to="3635907923to9835170475" />
<connection from="9835170474to3635907923" to="3635907923to4233524639" />
<connection from="9835170474to3635907923" to="3635907923to9835170474" />
<connection from="9835170474to3635907923" to="3635907923to9835170475" />
<connection from="9835170475to3635907923" to="3635907923to4233524639" />
<connection from="9835170475to3635907923" to="3635907923to9835170474" />
<connection from="9835170475to3635907923" to="3635907923to9835170475" />
<connection from="9835190693to3635907929" to="3635907929to9835190693" />
<connection from="9835190693to3635907929" to="3635907929to9835190659" />
<connection from="9835190693to3635907929" to="3635907929to3635907930" />
<connection from="9835190659to3635907929" to="3635907929to9835190693" />
<connection from="9835190659to3635907929" to="3635907929to9835190659" />
<connection from="9835190659to3635907929" to="3635907929to3635907930" />
<connection from="3635907930to3635907929" to="3635907929to9835190693" />
<connection from="3635907930to3635907929" to="3635907929to9835190659" />
<connection from="3635907930to3635907929" to="3635907929to3635907930" />
<connection from="3635907929to3635907930" to="3635907930to3635907929" />
<connection from="3635907929to3635907930" to="3635907930to10030780660" />
<connection from="3635907929to3635907930" to="3635907930to9835190693" />
<connection from="10030780660to3635907930" to="3635907930to3635907929" />
<connection from="10030780660to3635907930" to="3635907930to10030780660" />
<connection from="10030780660to3635907930" to="3635907930to9835190693" />
<connection from="9835190693to3635907930" to="3635907930to3635907929" />
<connection from="9835190693to3635907930" to="3635907930to10030780660" />
<connection from="9835190693to3635907930" to="3635907930to9835190693" />
<connection from="4233654570to3635907938" to="3635907938to4233654570" />
<connection from="4233654570to3635907938" to="3635907938to10030780660" />
<connection from="10030780660to3635907938" to="3635907938to4233654570" />
<connection from="10030780660to3635907938" to="3635907938to10030780660" />
<connection from="301037251to3636291416" to="3636291416to301037251" />
<connection from="301037251to3636291416" to="3636291416to5006266347" />
<connection from="301037251to3636291416" to="3636291416to6657266347" />
<connection from="301037251to3636291416" to="3636291416to10049616472" />
<connection from="5006266347to3636291416" to="3636291416to301037251" />
<connection from="5006266347to3636291416" to="3636291416to5006266347" />
<connection from="5006266347to3636291416" to="3636291416to6657266347" />
<connection from="5006266347to3636291416" to="3636291416to10049616472" />
<connection from="6657266347to3636291416" to="3636291416to301037251" />
<connection from="6657266347to3636291416" to="3636291416to5006266347" />
<connection from="6657266347to3636291416" to="3636291416to6657266347" />
<connection from="6657266347to3636291416" to="3636291416to10049616472" />
<connection from="10049616472to3636291416" to="3636291416to301037251" />
<connection from="10049616472to3636291416" to="3636291416to5006266347" />
<connection from="10049616472to3636291416" to="3636291416to6657266347" />
<connection from="10049616472to3636291416" to="3636291416to10049616472" />
<connection from="5006266348to3636291419" to="3636291419to5006266348" />
<connection from="5006266348to3636291419" to="3636291419to3636291422" />
<connection from="5006266348to3636291419" to="3636291419to9865685167" />
<connection from="3636291422to3636291419" to="3636291419to5006266348" />
<connection from="3636291422to3636291419" to="3636291419to3636291422" />
<connection from="3636291422to3636291419" to="3636291419to9865685167" />
<connection from="9865685167to3636291419" to="3636291419to5006266348" />
<connection from="9865685167to3636291419" to="3636291419to3636291422" />
<connection from="9865685167to3636291419" to="3636291419to9865685167" />
<connection from="3636291419to3636291422" to="3636291422to3636291419" />
<connection from="3636291419to3636291422" to="3636291422to5006266347" />
<connection from="3636291419to3636291422" to="3636291422to9867231161" />
<connection from="5006266347to3636291422" to="3636291422to3636291419" />
<connection from="5006266347to3636291422" to="3636291422to5006266347" />
<connection from="5006266347to3636291422" to="3636291422to9867231161" />
<connection from="9867231161to3636291422" to="3636291422to3636291419" />
<connection from="9867231161to3636291422" to="3636291422to5006266347" />
<connection from="9867231161to3636291422" to="3636291422to9867231161" />
<connection from="3635907904to3636985377" to="3636985377to3635907904" />
<connection from="3635907904to3636985377" to="3636985377to3636985378" />
<connection from="3635907904to3636985377" to="3636985377to4233524684" />
<connection from="3636985378to3636985377" to="3636985377to3635907904" />
<connection from="3636985378to3636985377" to="3636985377to3636985378" />
<connection from="3636985378to3636985377" to="3636985377to4233524684" />
<connection from="4233524684to3636985377" to="3636985377to3635907904" />
<connection from="4233524684to3636985377" to="3636985377to3636985378" />
<connection from="4233524684to3636985377" to="3636985377to4233524684" />
<connection from="3636985377to3636985378" to="3636985378to3636985377" />
<connection from="3636985377to3636985378" to="3636985378to9835190697" />
<connection from="3636985377to3636985378" to="3636985378to6095495876" />