<?xml version="1.0" encoding="UTF-8"?>

<!-- generated on 2022-10-03 16:35:56 by Eclipse SUMO netconvert Version 1.14.1
<configuration xmlns:xsi="http://www.w3.org/2001/XMLSchema-instance" xsi:noNamespaceSchemaLocation="http://sumo.dlr.de/xsd/netconvertConfiguration.xsd">

    <input>
        <node-files value="iit_delhi2.nod.xml"/>
        <edge-files value="iit_delhi2.edg.xml"/>
        <connection-files value="iit_delhi2.con.xml"/>
    </input>

    <output>
        <output-file value="iit_delhi2.net.xml"/>
    </output>

</configuration>
-->

<net version="1.9" junctionCornerDetail="5" limitTurnSpeed="5.50" xmlns:xsi="http://www.w3.org/2001/XMLSchema-instance" xsi:noNamespaceSchemaLocation="http://sumo.dlr.de/xsd/net_file.xsd">

    <location netOffset="1209.98,971.81" convBoundary="0.00,0.00,2413.33,1910.74" origBoundary="-1209.98,-971.81,1203.35,938.93" projParameter="!"/>

    <edge id=":10030780658_0" function="internal">
        <lane id=":10030780658_0_0" index="0" speed="3.65" length="4.67" shape="887.93,971.16 887.47,972.53 886.80,973.12 885.93,972.95 884.84,972.00"/>
    </edge>
    <edge id=":10049590723_0" function="internal">
        <lane id=":10049590723_0_0" index="0" speed="13.89" length="12.73" shape="214.26,1152.02 210.93,1152.62 207.89,1152.52 204.90,1152.54 201.71,1153.47"/>
    </edge>
    <edge id=":10049590723_1" function="internal">
        <lane id=":10049590723_1_0" index="0" speed="5.76" length="14.44" shape="214.26,1152.02 210.65,1151.66 208.35,1148.89 208.03,1145.32 210.34,1142.53"/>
    </edge>
    <edge id=":10049590723_2" function="internal">
        <lane id=":10049590723_2_0" index="0" speed="3.79" length="5.22" shape="214.26,1152.02 213.05,1150.96 212.72,1150.01 213.28,1149.19 214.73,1148.48"/>
    </edge>
    <edge id=":10049590723_3" function="internal">
        <lane id=":10049590723_3_0" index="0" speed="8.46" length="33.65" shape="213.27,1144.67 202.08,1150.36 198.59,1152.90 202.81,1152.27 214.73,1148.48"/>
    </edge>
    <edge id=":10049590723_4" function="internal">
        <lane id=":10049590723_4_0" index="0" speed="13.89" length="14.57" shape="213.27,1144.67 210.20,1146.65 207.49,1149.06 204.78,1151.47 201.71,1153.47"/>
    </edge>
    <edge id=":10049590723_5" function="internal">
        <lane id=":10049590723_5_0" index="0" speed="3.81" length="2.12" shape="213.27,1144.67 211.74,1145.23 211.26,1145.15"/>
    </edge>
    <edge id=":10049590723_9" function="internal">
        <lane id=":10049590723_9_0" index="0" speed="3.81" length="3.18" shape="211.26,1145.15 210.74,1145.07 210.27,1144.16 210.34,1142.53"/>
    </edge>
    <edge id=":10049590723_6" function="internal">
        <lane id=":10049590723_6_0" index="0" speed="13.89" length="12.94" shape="200.30,1150.60 203.13,1148.71 205.32,1146.55 207.51,1144.40 210.34,1142.53"/>
    </edge>
    <edge id=":10049590723_7" function="internal">
        <lane id=":10049590723_7_0" index="0" speed="13.89" length="0.31" shape="200.30,1150.60 200.59,1150.51"/>
    </edge>
    <edge id=":10049590723_8" function="internal">
        <lane id=":10049590723_8_0" index="0" speed="3.65" length="1.32" shape="200.30,1150.60 201.61,1150.77"/>
    </edge>
    <edge id=":10049590723_10" function="internal">
        <lane id=":10049590723_10_0" index="0" speed="13.89" length="14.35" shape="200.59,1150.51 203.78,1149.56 207.42,1149.32 211.11,1149.18 214.73,1148.48"/>
    </edge>
    <edge id=":10049590723_11" function="internal">
        <lane id=":10049590723_11_0" index="0" speed="3.65" length="3.35" shape="201.61,1150.77 201.73,1150.79 202.44,1151.33 202.44,1152.22 201.71,1153.47"/>
    </edge>
    <edge id=":10049605857_0" function="internal">
        <lane id=":10049605857_0_0" index="0" speed="3.65" length="4.67" shape="2293.46,1001.04 2294.32,1002.20 2294.42,1003.09 2293.77,1003.71 2292.37,1004.05"/>
    </edge>
    <edge id=":10049605858_0" function="internal">
        <lane id=":10049605858_0_0" index="0" speed="3.65" length="4.67" shape="2288.98,959.06 2290.16,959.88 2290.54,960.69 2290.12,961.48 2288.90,962.25"/>
    </edge>
    <edge id=":1130872481_0" function="internal">
        <lane id=":1130872481_0_0" index="0" speed="6.48" length="9.03" shape="110.56,723.32 109.09,721.32 107.34,720.28 105.31,720.20 102.99,721.08"/>
    </edge>
    <edge id=":1130872481_1" function="internal">
        <lane id=":1130872481_1_0" index="0" speed="8.02" length="14.22" shape="110.56,723.32 109.22,719.65 109.37,716.43 111.00,713.67 114.12,711.36"/>
    </edge>
    <edge id=":1130872481_2" function="internal">
        <lane id=":1130872481_2_0" index="0" speed="3.65" length="4.67" shape="110.56,723.32 110.70,721.89 111.21,721.16 112.11,721.13 113.38,721.82"/>
    </edge>
    <edge id=":1130872481_3" function="internal">
        <lane id=":1130872481_3_0" index="0" speed="6.53" length="9.08" shape="115.64,714.17 113.65,715.65 112.61,717.41 112.52,719.47 113.38,721.82"/>
    </edge>
    <edge id=":1130872481_4" function="internal">
        <lane id=":1130872481_4_0" index="0" speed="13.89" length="14.42" shape="115.64,714.17 102.99,721.08"/>
    </edge>
    <edge id=":1130872481_5" function="internal">
        <lane id=":1130872481_5_0" index="0" speed="3.65" length="1.44" shape="115.64,714.17 114.21,714.04"/>
    </edge>
    <edge id=":1130872481_9" function="internal">
        <lane id=":1130872481_9_0" index="0" speed="3.65" length="3.23" shape="114.21,714.04 113.47,713.52 113.45,712.63 114.12,711.36"/>
    </edge>
    <edge id=":1130872481_6" function="internal">
        <lane id=":1130872481_6_0" index="0" speed="13.89" length="14.45" shape="101.44,718.27 114.12,711.36"/>
    </edge>
    <edge id=":1130872481_7" function="internal">
        <lane id=":1130872481_7_0" index="0" speed="7.98" length="4.11" shape="101.44,718.27 105.10,716.89 105.30,716.90"/>
    </edge>
    <edge id=":1130872481_8" function="internal">
        <lane id=":1130872481_8_0" index="0" speed="3.65" length="1.44" shape="101.44,718.27 102.88,718.39"/>
    </edge>
    <edge id=":1130872481_10" function="internal">
        <lane id=":1130872481_10_0" index="0" speed="7.98" length="10.13" shape="105.30,716.90 108.31,717.02 111.07,718.66 113.38,721.82"/>
    </edge>
    <edge id=":1130872481_11" function="internal">
        <lane id=":1130872481_11_0" index="0" speed="3.65" length="3.23" shape="102.88,718.39 103.61,718.90 103.65,719.80 102.99,721.08"/>
    </edge>
    <edge id=":1147571742_0" function="internal">
        <lane id=":1147571742_0_0" index="0" speed="6.32" length="8.72" shape="330.65,842.96 329.20,841.15 327.48,840.29 325.49,840.38 323.23,841.42"/>
    </edge>
    <edge id=":1147571742_1" function="internal">
        <lane id=":1147571742_1_0" index="0" speed="13.89" length="12.76" shape="330.65,842.96 324.34,831.86"/>
    </edge>
    <edge id=":1147571742_2" function="internal">
        <lane id=":1147571742_2_0" index="0" speed="7.97" length="3.87" shape="330.65,842.96 329.81,839.90 329.90,839.20"/>
    </edge>
    <edge id=":1147571742_3" function="internal">
        <lane id=":1147571742_3_0" index="0" speed="3.65" length="1.44" shape="330.65,842.96 330.74,841.52"/>
    </edge>
    <edge id=":1147571742_16" function="internal">
        <lane id=":1147571742_16_0" index="0" speed="7.97" length="9.51" shape="329.90,839.20 330.23,836.48 331.67,833.29 333.93,830.94"/>
    </edge>
    <edge id=":1147571742_17" function="internal">
        <lane id=":1147571742_17_0" index="0" speed="3.65" length="3.23" shape="330.74,841.52 331.23,840.77 332.13,840.72 333.42,841.36"/>
    </edge>
    <edge id=":1147571742_4" function="internal">
        <lane id=":1147571742_4_0" index="0" speed="6.62" length="8.93" shape="335.56,833.70 333.65,835.36 332.65,837.19 332.58,839.19 333.42,841.36"/>
    </edge>
    <edge id=":1147571742_5" function="internal">
        <lane id=":1147571742_5_0" index="0" speed="13.89" length="14.55" shape="335.56,833.70 323.23,841.42"/>
    </edge>
    <edge id=":1147571742_6" function="internal">
        <lane id=":1147571742_6_0" index="0" speed="7.31" length="12.35" shape="335.56,833.70 332.73,834.77 329.46,834.81 326.43,833.84 324.34,831.86"/>
    </edge>
    <edge id=":1147571742_7" function="internal">
        <lane id=":1147571742_7_0" index="0" speed="3.65" length="4.68" shape="335.56,833.70 334.11,833.62 333.36,833.13 333.30,832.24 333.93,830.94"/>
    </edge>
    <edge id=":1147571742_8" function="internal">
        <lane id=":1147571742_8_0" index="0" speed="5.97" length="7.88" shape="327.14,830.30 328.35,831.75 329.89,832.34 331.75,832.07 333.93,830.94"/>
    </edge>
    <edge id=":1147571742_9" function="internal">
        <lane id=":1147571742_9_0" index="0" speed="13.89" length="12.72" shape="327.14,830.30 333.42,841.36"/>
    </edge>
    <edge id=":1147571742_10" function="internal">
        <lane id=":1147571742_10_0" index="0" speed="7.73" length="3.38" shape="327.14,830.30 327.75,833.09 327.64,833.60"/>
    </edge>
    <edge id=":1147571742_11" function="internal">
        <lane id=":1147571742_11_0" index="0" speed="3.65" length="1.44" shape="327.14,830.30 327.02,831.74"/>
    </edge>
    <edge id=":1147571742_18" function="internal">
        <lane id=":1147571742_18_0" index="0" speed="7.73" length="9.24" shape="327.64,833.60 327.10,836.27 325.49,839.25 323.23,841.42"/>
    </edge>
    <edge id=":1147571742_19" function="internal">
        <lane id=":1147571742_19_0" index="0" speed="3.65" length="3.23" shape="327.02,831.74 326.52,832.48 325.63,832.52 324.34,831.86"/>
    </edge>
    <edge id=":1147571742_12" function="internal">
        <lane id=":1147571742_12_0" index="0" speed="6.39" length="8.31" shape="321.52,838.72 323.54,837.12 324.68,835.45 324.95,833.69 324.34,831.86"/>
    </edge>
    <edge id=":1147571742_13" function="internal">
        <lane id=":1147571742_13_0" index="0" speed="13.89" length="14.65" shape="321.52,838.72 333.93,830.94"/>
    </edge>
    <edge id=":1147571742_14" function="internal">
        <lane id=":1147571742_14_0" index="0" speed="7.63" length="13.21" shape="321.52,838.72 324.54,837.72 328.00,837.90 331.19,839.15 333.42,841.36"/>
    </edge>
    <edge id=":1147571742_15" function="internal">
        <lane id=":1147571742_15_0" index="0" speed="3.65" length="4.67" shape="321.52,838.72 322.96,838.75 323.73,839.22 323.81,840.11 323.23,841.42"/>
    </edge>
    <edge id=":1901092130_0" function="internal">
        <lane id=":1901092130_0_0" index="0" speed="6.51" length="9.07" shape="518.62,406.54 517.44,404.34 515.84,403.05 513.83,402.67 511.41,403.20"/>
    </edge>
    <edge id=":1901092130_1" function="internal">
        <lane id=":1901092130_1_0" index="0" speed="13.89" length="14.45" shape="518.62,406.54 513.62,392.98"/>
    </edge>
    <edge id=":1901092130_2" function="internal">
        <lane id=":1901092130_2_0" index="0" speed="7.97" length="4.08" shape="518.62,406.54 517.80,402.71 517.83,402.55"/>
    </edge>
    <edge id=":1901092130_3" function="internal">
        <lane id=":1901092130_3_0" index="0" speed="3.65" length="1.44" shape="518.62,406.54 518.96,405.14"/>
    </edge>
    <edge id=":1901092130_16" function="internal">
        <lane id=":1901092130_16_0" index="0" speed="7.97" length="10.19" shape="517.83,402.55 518.41,399.55 520.47,397.08 523.95,395.28"/>
    </edge>
    <edge id=":1901092130_17" function="internal">
        <lane id=":1901092130_17_0" index="0" speed="3.65" length="3.23" shape="518.96,405.14 519.57,404.49 520.46,404.59 521.62,405.43"/>
    </edge>
    <edge id=":1901092130_4" function="internal">
        <lane id=":1901092130_4_0" index="0" speed="6.46" length="9.03" shape="525.00,398.31 522.79,399.44 521.49,401.01 521.10,403.01 521.62,405.43"/>
    </edge>
    <edge id=":1901092130_5" function="internal">
        <lane id=":1901092130_5_0" index="0" speed="13.89" length="14.44" shape="525.00,398.31 511.41,403.20"/>
    </edge>
    <edge id=":1901092130_6" function="internal">
        <lane id=":1901092130_6_0" index="0" speed="8.08" length="14.26" shape="525.00,398.31 521.16,399.06 517.98,398.42 515.47,396.40 513.62,392.98"/>
    </edge>
    <edge id=":1901092130_7" function="internal">
        <lane id=":1901092130_7_0" index="0" speed="3.65" length="4.67" shape="525.00,398.31 523.60,397.95 522.96,397.32 523.08,396.43 523.95,395.28"/>
    </edge>
    <edge id=":1901092130_8" function="internal">
        <lane id=":1901092130_8_0" index="0" speed="6.60" length="9.17" shape="516.62,391.88 517.81,394.07 519.43,395.36 521.47,395.77 523.95,395.28"/>
    </edge>
    <edge id=":1901092130_9" function="internal">
        <lane id=":1901092130_9_0" index="0" speed="13.89" length="14.45" shape="516.62,391.88 521.62,405.43"/>
    </edge>
    <edge id=":1901092130_10" function="internal">
        <lane id=":1901092130_10_0" index="0" speed="8.02" length="4.06" shape="516.62,391.88 517.44,395.67 517.40,395.85"/>
    </edge>
    <edge id=":1901092130_11" function="internal">
        <lane id=":1901092130_11_0" index="0" speed="3.65" length="1.44" shape="516.62,391.88 516.29,393.28"/>
    </edge>
    <edge id=":1901092130_18" function="internal">
        <lane id=":1901092130_18_0" index="0" speed="8.02" length="10.14" shape="517.40,395.85 516.84,398.82 514.83,401.33 511.41,403.20"/>
    </edge>
    <edge id=":1901092130_19" function="internal">
        <lane id=":1901092130_19_0" index="0" speed="3.65" length="3.23" shape="516.29,393.28 515.68,393.93 514.79,393.83 513.62,392.98"/>
    </edge>
    <edge id=":1901092130_12" function="internal">
        <lane id=":1901092130_12_0" index="0" speed="6.53" length="9.06" shape="510.29,400.20 512.47,399.01 513.76,397.41 514.14,395.40 513.62,392.98"/>
    </edge>
    <edge id=":1901092130_13" function="internal">
        <lane id=":1901092130_13_0" index="0" speed="13.89" length="14.52" shape="510.29,400.20 523.95,395.28"/>
    </edge>
    <edge id=":1901092130_14" function="internal">
        <lane id=":1901092130_14_0" index="0" speed="8.00" length="14.25" shape="510.29,400.20 514.10,399.37 517.25,399.96 519.76,401.99 521.62,405.43"/>
    </edge>
    <edge id=":1901092130_15" function="internal">
        <lane id=":1901092130_15_0" index="0" speed="3.65" length="4.67" shape="510.29,400.20 511.69,400.53 512.35,401.14 512.25,402.03 511.41,403.20"/>
    </edge>
    <edge id=":1901092237_0" function="internal">
        <lane id=":1901092237_0_0" index="0" speed="6.85" length="8.73" shape="612.81,655.09 611.11,653.81 609.23,653.34 607.15,653.68 604.87,654.83"/>
    </edge>
    <edge id=":1901092237_1" function="internal">
        <lane id=":1901092237_1_0" index="0" speed="13.89" length="13.92" shape="612.81,655.09 610.42,652.42 608.38,649.71 606.66,646.81 605.24,643.53"/>
    </edge>
    <edge id=":1901092237_2" function="internal">
        <lane id=":1901092237_2_0" index="0" speed="7.52" length="13.48" shape="612.81,655.09 610.94,652.27 610.68,649.44 612.03,646.60 615.00,643.76"/>
    </edge>
    <edge id=":1901092237_3" function="internal">
        <lane id=":1901092237_3_0" index="0" speed="3.65" length="4.67" shape="612.81,655.09 612.56,653.67 612.87,652.83 613.72,652.56 615.13,652.88"/>
    </edge>
    <edge id=":1901092237_4" function="internal">
        <lane id=":1901092237_4_0" index="0" speed="5.91" length="7.90" shape="616.93,646.31 615.06,648.05 614.14,649.72 614.16,651.33 615.13,652.88"/>
    </edge>
    <edge id=":1901092237_5" function="internal">
        <lane id=":1901092237_5_0" index="0" speed="13.89" length="14.77" shape="616.93,646.31 604.87,654.83"/>
    </edge>
    <edge id=":1901092237_6" function="internal">
        <lane id=":1901092237_6_0" index="0" speed="7.06" length="4.45" shape="616.93,646.31 613.95,647.42 612.68,647.36"/>
    </edge>
    <edge id=":1901092237_7" function="internal">
        <lane id=":1901092237_7_0" index="0" speed="3.65" length="1.44" shape="616.93,646.31 615.49,646.40"/>
    </edge>
    <edge id=":1901092237_16" function="internal">
        <lane id=":1901092237_16_0" index="0" speed="7.06" length="8.82" shape="612.68,647.36 610.40,647.24 607.20,645.89 605.24,643.53"/>
    </edge>
    <edge id=":1901092237_17" function="internal">
        <lane id=":1901092237_17_0" index="0" speed="3.65" length="3.23" shape="615.49,646.40 614.69,646.00 614.53,645.12 615.00,643.76"/>
    </edge>
    <edge id=":1901092237_8" function="internal">
        <lane id=":1901092237_8_0" index="0" speed="5.90" length="8.89" shape="608.07,641.93 609.26,644.12 610.81,645.16 612.72,645.04 615.00,643.76"/>
    </edge>
    <edge id=":1901092237_9" function="internal">
        <lane id=":1901092237_9_0" index="0" speed="13.89" length="13.14" shape="608.07,641.93 609.41,645.12 610.95,647.81 612.81,650.30 615.13,652.88"/>
    </edge>
    <edge id=":1901092237_10" function="internal">
        <lane id=":1901092237_10_0" index="0" speed="8.85" length="14.48" shape="608.07,641.93 609.06,646.01 608.85,649.52 607.46,652.46 604.87,654.83"/>
    </edge>
    <edge id=":1901092237_11" function="internal">
        <lane id=":1901092237_11_0" index="0" speed="3.67" length="4.74" shape="608.07,641.93 607.96,643.39 607.45,644.14 606.55,644.19 605.24,643.53"/>
    </edge>
    <edge id=":1901092237_12" function="internal">
        <lane id=":1901092237_12_0" index="0" speed="7.33" length="9.68" shape="603.12,652.16 604.84,650.57 605.77,648.61 605.91,646.26 605.24,643.53"/>
    </edge>
    <edge id=":1901092237_13" function="internal">
        <lane id=":1901092237_13_0" index="0" speed="13.89" length="14.55" shape="603.12,652.16 615.00,643.76"/>
    </edge>
    <edge id=":1901092237_14" function="internal">
        <lane id=":1901092237_14_0" index="0" speed="8.16" length="3.94" shape="603.12,652.16 606.05,650.97 606.83,650.91"/>
    </edge>
    <edge id=":1901092237_15" function="internal">
        <lane id=":1901092237_15_0" index="0" speed="3.65" length="1.44" shape="603.12,652.16 604.56,652.17"/>
    </edge>
    <edge id=":1901092237_18" function="internal">
        <lane id=":1901092237_18_0" index="0" speed="8.16" length="8.81" shape="606.83,650.91 609.44,650.70 612.66,651.34 615.13,652.88"/>
    </edge>
    <edge id=":1901092237_19" function="internal">
        <lane id=":1901092237_19_0" index="0" speed="3.65" length="3.23" shape="604.56,652.17 605.33,652.62 605.44,653.51 604.87,654.83"/>
    </edge>
    <edge id=":2009503166_0" function="internal">
        <lane id=":2009503166_0_0" index="0" speed="3.90" length="2.57" shape="21.74,891.02 21.30,890.47 20.80,890.18 20.21,890.17 19.56,890.43"/>
    </edge>
    <edge id=":2009503166_1" function="internal">
        <lane id=":2009503166_1_0" index="0" speed="3.65" length="1.30" shape="21.74,891.02 21.82,889.72"/>
    </edge>
    <edge id=":2009503166_4" function="internal">
        <lane id=":2009503166_4_0" index="0" speed="3.65" length="3.37" shape="21.82,889.72 21.83,889.58 22.33,888.84 23.22,888.79 24.51,889.43"/>
    </edge>
    <edge id=":2009503166_2" function="internal">
        <lane id=":2009503166_2_0" index="0" speed="6.08" length="7.71" shape="17.98,887.64 19.95,886.87 21.69,886.91 23.21,887.76 24.51,889.43"/>
    </edge>
    <edge id=":2009503166_3" function="internal">
        <lane id=":2009503166_3_0" index="0" speed="3.65" length="1.44" shape="17.98,887.64 19.42,887.75"/>
    </edge>
    <edge id=":2009503166_5" function="internal">
        <lane id=":2009503166_5_0" index="0" speed="3.65" length="3.23" shape="19.42,887.75 20.16,888.25 20.21,889.14 19.56,890.43"/>
    </edge>
    <edge id=":2009503169_0" function="internal">
        <lane id=":2009503169_0_0" index="0" speed="13.89" length="14.55" shape="211.60,908.64 198.92,915.78"/>
    </edge>
    <edge id=":2009503169_1" function="internal">
        <lane id=":2009503169_1_0" index="0" speed="7.74" length="4.28" shape="211.60,908.64 207.72,910.17 207.61,910.16"/>
    </edge>
    <edge id=":2009503169_2" function="internal">
        <lane id=":2009503169_2_0" index="0" speed="3.65" length="1.44" shape="211.60,908.64 210.16,908.54"/>
    </edge>
    <edge id=":2009503169_9" function="internal">
        <lane id=":2009503169_9_0" index="0" speed="7.74" length="10.57" shape="207.61,910.16 204.47,909.97 201.85,908.05 199.84,904.39"/>
    </edge>
    <edge id=":2009503169_10" function="internal">
        <lane id=":2009503169_10_0" index="0" speed="3.65" length="3.23" shape="210.16,908.54 209.41,908.04 209.36,907.15 210.01,905.86"/>
    </edge>
    <edge id=":2009503169_3" function="internal">
        <lane id=":2009503169_3_0" index="0" speed="6.19" length="9.05" shape="202.84,903.27 204.06,905.50 205.66,906.67 207.65,906.79 210.01,905.86"/>
    </edge>
    <edge id=":2009503169_4" function="internal">
        <lane id=":2009503169_4_0" index="0" speed="8.54" length="14.50" shape="202.84,903.27 203.80,907.26 203.46,910.68 201.84,913.52 198.92,915.78"/>
    </edge>
    <edge id=":2009503169_5" function="internal">
        <lane id=":2009503169_5_0" index="0" speed="3.65" length="4.67" shape="202.84,903.27 202.51,904.68 201.90,905.33 201.01,905.24 199.84,904.39"/>
    </edge>
    <edge id=":2009503169_6" function="internal">
        <lane id=":2009503169_6_0" index="0" speed="7.15" length="9.87" shape="197.37,912.98 199.29,911.46 200.35,909.53 200.53,907.17 199.84,904.39"/>
    </edge>
    <edge id=":2009503169_7" function="internal">
        <lane id=":2009503169_7_0" index="0" speed="13.89" length="14.50" shape="197.37,912.98 210.01,905.86"/>
    </edge>
    <edge id=":2009503169_8" function="internal">
        <lane id=":2009503169_8_0" index="0" speed="3.65" length="1.44" shape="197.37,912.98 198.81,913.10"/>
    </edge>
    <edge id=":2009503169_11" function="internal">
        <lane id=":2009503169_11_0" index="0" speed="3.65" length="3.23" shape="198.81,913.10 199.55,913.60 199.59,914.50 198.92,915.78"/>
    </edge>
    <edge id=":2009503172_0" function="internal">
        <lane id=":2009503172_0_0" index="0" speed="5.68" length="6.71" shape="78.66,989.80 77.26,987.78 75.96,986.52 74.75,986.03 73.65,986.30"/>
    </edge>
    <edge id=":2009503172_1" function="internal">
        <lane id=":2009503172_1_0" index="0" speed="13.89" length="14.72" shape="78.66,989.80 71.20,977.11"/>
    </edge>
    <edge id=":2009503172_2" function="internal">
        <lane id=":2009503172_2_0" index="0" speed="8.06" length="4.15" shape="78.66,989.80 77.68,986.63 77.74,985.80"/>
    </edge>
    <edge id=":2009503172_3" function="internal">
        <lane id=":2009503172_3_0" index="0" speed="3.65" length="1.44" shape="78.66,989.80 78.73,988.36"/>
    </edge>
    <edge id=":2009503172_16" function="internal">
        <lane id=":2009503172_16_0" index="0" speed="8.06" length="9.68" shape="77.74,985.80 77.95,983.06 79.30,979.73 81.56,977.28"/>
    </edge>
    <edge id=":2009503172_17" function="internal">
        <lane id=":2009503172_17_0" index="0" speed="3.65" length="3.23" shape="78.73,988.36 79.21,987.61 80.10,987.54 81.40,988.15"/>
    </edge>
    <edge id=":2009503172_4" function="internal">
        <lane id=":2009503172_4_0" index="0" speed="6.79" length="9.53" shape="83.35,979.93 81.39,981.69 80.41,983.64 80.42,985.80 81.40,988.15"/>
    </edge>
    <edge id=":2009503172_5" function="internal">
        <lane id=":2009503172_5_0" index="0" speed="13.89" length="11.61" shape="83.35,979.93 73.65,986.30"/>
    </edge>
    <edge id=":2009503172_6" function="internal">
        <lane id=":2009503172_6_0" index="0" speed="7.64" length="13.55" shape="83.35,979.93 80.29,980.98 76.76,980.75 73.49,979.40 71.20,977.11"/>
    </edge>
    <edge id=":2009503172_7" function="internal">
        <lane id=":2009503172_7_0" index="0" speed="3.65" length="4.67" shape="83.35,979.93 81.91,979.94 81.13,979.50 81.01,978.61 81.56,977.28"/>
    </edge>
    <edge id=":2009503172_8" function="internal">
        <lane id=":2009503172_8_0" index="0" speed="6.35" length="9.04" shape="73.97,975.52 75.51,977.49 77.29,978.44 79.31,978.37 81.56,977.28"/>
    </edge>
    <edge id=":2009503172_9" function="internal">
        <lane id=":2009503172_9_0" index="0" speed="13.89" length="14.65" shape="73.97,975.52 81.40,988.15"/>
    </edge>
    <edge id=":2009503172_10" function="internal">
        <lane id=":2009503172_10_0" index="0" speed="7.33" length="4.74" shape="73.97,975.52 75.01,978.31 75.21,980.06"/>
    </edge>
    <edge id=":2009503172_11" function="internal">
        <lane id=":2009503172_11_0" index="0" speed="3.65" length="1.44" shape="73.97,975.52 73.87,976.96"/>
    </edge>
    <edge id=":2009503172_18" function="internal">
        <lane id=":2009503172_18_0" index="0" speed="7.33" length="6.70" shape="75.21,980.06 75.38,981.52 74.96,984.42 73.65,986.30"/>
    </edge>
    <edge id=":2009503172_19" function="internal">
        <lane id=":2009503172_19_0" index="0" speed="3.65" length="3.23" shape="73.87,976.96 73.38,977.70 72.49,977.76 71.20,977.11"/>
    </edge>
    <edge id=":2009503172_12" function="internal">
        <lane id=":2009503172_12_0" index="0" speed="5.92" length="7.09" shape="71.96,983.58 72.73,982.67 72.86,981.29 72.35,979.44 71.20,977.11"/>
    </edge>
    <edge id=":2009503172_13" function="internal">
        <lane id=":2009503172_13_0" index="0" speed="13.89" length="11.49" shape="71.96,983.58 81.56,977.28"/>
    </edge>
    <edge id=":2009503172_14" function="internal">
        <lane id=":2009503172_14_0" index="0" speed="7.13" length="11.18" shape="71.96,983.58 74.21,983.24 76.92,984.18 79.51,985.96 81.40,988.15"/>
    </edge>
    <edge id=":2009503172_15" function="internal">
        <lane id=":2009503172_15_0" index="0" speed="3.65" length="4.67" shape="71.96,983.58 73.40,983.63 74.16,984.10 74.24,984.99 73.65,986.30"/>
    </edge>
    <edge id=":2009503212_0" function="internal">
        <lane id=":2009503212_0_0" index="0" speed="5.53" length="6.54" shape="205.99,1288.25 205.16,1285.90 204.28,1284.33 203.33,1283.54 202.32,1283.53"/>
    </edge>
    <edge id=":2009503212_1" function="internal">
        <lane id=":2009503212_1_0" index="0" speed="13.89" length="8.97" shape="205.99,1288.25 203.54,1279.63"/>
    </edge>
    <edge id=":2009503212_2" function="internal">
        <lane id=":2009503212_2_0" index="0" speed="3.65" length="1.44" shape="205.99,1288.25 206.43,1286.88"/>
    </edge>
    <edge id=":2009503212_9" function="internal">
        <lane id=":2009503212_9_0" index="0" speed="3.65" length="3.23" shape="206.43,1286.88 207.08,1286.27 207.96,1286.43 209.07,1287.36"/>
    </edge>
    <edge id=":2009503212_3" function="internal">
        <lane id=":2009503212_3_0" index="0" speed="13.89" length="8.84" shape="206.64,1278.86 209.07,1287.36"/>
    </edge>
    <edge id=":2009503212_4" function="internal">
        <lane id=":2009503212_4_0" index="0" speed="6.02" length="1.70" shape="206.64,1278.86 206.64,1280.21 206.46,1280.51"/>
    </edge>
    <edge id=":2009503212_5" function="internal">
        <lane id=":2009503212_5_0" index="0" speed="3.65" length="1.44" shape="206.64,1278.86 206.16,1280.21"/>
    </edge>
    <edge id=":2009503212_10" function="internal">
        <lane id=":2009503212_10_0" index="0" speed="6.02" length="5.27" shape="206.46,1280.51 205.92,1281.44 204.48,1282.55 202.32,1283.53"/>
    </edge>
    <edge id=":2009503212_11" function="internal">
        <lane id=":2009503212_11_0" index="0" speed="3.65" length="3.23" shape="206.16,1280.21 205.48,1280.79 204.60,1280.60 203.54,1279.63"/>
    </edge>
    <edge id=":2009503212_6" function="internal">
        <lane id=":2009503212_6_0" index="0" speed="4.12" length="2.75" shape="201.22,1280.52 202.01,1280.38 202.82,1280.31 203.41,1280.13 203.54,1279.63"/>
    </edge>
    <edge id=":2009503212_7" function="internal">
        <lane id=":2009503212_7_0" index="0" speed="7.19" length="11.82" shape="201.22,1280.52 203.69,1280.23 205.83,1281.27 207.62,1283.64 209.07,1287.36"/>
    </edge>
    <edge id=":2009503212_8" function="internal">
        <lane id=":2009503212_8_0" index="0" speed="3.65" length="4.67" shape="201.22,1280.52 202.62,1280.86 203.27,1281.48 203.17,1282.37 202.32,1283.53"/>
    </edge>
    <edge id=":2009503218_0" function="internal">
        <lane id=":2009503218_0_0" index="0" speed="13.89" length="14.32" shape="243.31,1414.49 239.28,1400.74"/>
    </edge>
    <edge id=":2009503218_1" function="internal">
        <lane id=":2009503218_1_0" index="0" speed="8.45" length="3.70" shape="243.31,1414.49 242.86,1410.81"/>
    </edge>
    <edge id=":2009503218_2" function="internal">
        <lane id=":2009503218_2_0" index="0" speed="3.65" length="1.44" shape="243.31,1414.49 243.76,1413.12"/>
    </edge>
    <edge id=":2009503218_9" function="internal">
        <lane id=":2009503218_9_0" index="0" speed="8.45" length="10.64" shape="242.86,1410.81 243.72,1407.68 245.88,1405.10 249.35,1403.06"/>
    </edge>
    <edge id=":2009503218_10" function="internal">
        <lane id=":2009503218_10_0" index="0" speed="3.65" length="3.23" shape="243.76,1413.12 244.42,1412.52 245.30,1412.69 246.39,1413.63"/>
    </edge>
    <edge id=":2009503218_3" function="internal">
        <lane id=":2009503218_3_0" index="0" speed="7.04" length="9.67" shape="250.61,1406.00 248.22,1407.39 246.72,1409.12 246.11,1411.20 246.39,1413.63"/>
    </edge>
    <edge id=":2009503218_4" function="internal">
        <lane id=":2009503218_4_0" index="0" speed="7.82" length="14.62" shape="250.61,1406.00 246.68,1407.05 243.48,1406.53 241.01,1404.42 239.28,1400.74"/>
    </edge>
    <edge id=":2009503218_5" function="internal">
        <lane id=":2009503218_5_0" index="0" speed="3.65" length="4.67" shape="250.61,1406.00 249.19,1405.74 248.51,1405.16 248.56,1404.27 249.35,1403.06"/>
    </edge>
    <edge id=":2009503218_6" function="internal">
        <lane id=":2009503218_6_0" index="0" speed="6.29" length="9.04" shape="242.34,1399.81 243.41,1402.08 244.94,1403.39 246.92,1403.71 249.35,1403.06"/>
    </edge>
    <edge id=":2009503218_7" function="internal">