<?xml version="1.0" encoding="UTF-8"?>

<!-- generated on 2022-10-04 15:39:09 by Eclipse SUMO netconvert Version 1.14.1
<configuration xmlns:xsi="http://www.w3.org/2001/XMLSchema-instance" xsi:noNamespaceSchemaLocation="http://sumo.dlr.de/xsd/netconvertConfiguration.xsd">

    <input>
        <node-files value="iit_bombay.nod.xml"/>
        <edge-files value="iit_bombay.edg.xml"/>
        <connection-files value="iit_bombay.con.xml"/>
    </input>

    <output>
        <output-file value="iit_bombay.net.xml"/>
    </output>

</configuration>
-->

<net version="1.9" junctionCornerDetail="5" limitTurnSpeed="5.50" xmlns:xsi="http://www.w3.org/2001/XMLSchema-instance" xsi:noNamespaceSchemaLocation="http://sumo.dlr.de/xsd/net_file.xsd">

    <location netOffset="765.94,926.23" convBoundary="0.00,0.00,1548.53,1865.85" origBoundary="-765.94,-926.23,782.58,939.62" projParameter="!"/>

    <edge id=":1990860599_0" function="internal">
        <lane id=":1990860599_0_0" index="0" speed="3.65" length="4.67" shape="1207.70,1483.56 1207.23,1482.20 1207.39,1481.32 1208.20,1480.92 1209.64,1481.01"/>
    </edge>
    <edge id=":1990860600_0" function="internal">
        <lane id=":1990860600_0_0" index="0" speed="13.89" length="14.84" shape="1256.29,1511.72 1243.79,1519.73"/>
    </edge>
    <edge id=":1990860600_1" function="internal">
        <lane id=":1990860600_1_0" index="0" speed="9.52" length="3.66" shape="1256.29,1511.72 1253.10,1513.10 1252.91,1513.11"/>
    </edge>
    <edge id=":1990860600_2" function="internal">
        <lane id=":1990860600_2_0" index="0" speed="3.65" length="1.44" shape="1256.29,1511.72 1254.85,1511.70"/>
    </edge>
    <edge id=":1990860600_9" function="internal">
        <lane id=":1990860600_9_0" index="0" speed="9.52" length="11.37" shape="1252.91,1513.11 1249.72,1513.24 1246.14,1512.16 1242.36,1509.84"/>
    </edge>
    <edge id=":1990860600_10" function="internal">
        <lane id=":1990860600_10_0" index="0" speed="3.65" length="3.23" shape="1254.85,1511.70 1254.08,1511.24 1253.98,1510.35 1254.56,1509.03"/>
    </edge>
    <edge id=":1990860600_3" function="internal">
        <lane id=":1990860600_3_0" index="0" speed="8.25" length="11.11" shape="1244.30,1507.29 1247.17,1509.09 1249.84,1509.98 1252.30,1509.96 1254.56,1509.03"/>
    </edge>
    <edge id=":1990860600_4" function="internal">
        <lane id=":1990860600_4_0" index="0" speed="7.52" length="15.76" shape="1244.30,1507.29 1247.52,1510.53 1248.51,1513.69 1247.27,1516.75 1243.79,1519.73"/>
    </edge>
    <edge id=":1990860600_5" function="internal">
        <lane id=":1990860600_5_0" index="0" speed="3.65" length="4.67" shape="1244.30,1507.29 1244.77,1508.65 1244.60,1509.53 1243.80,1509.93 1242.36,1509.84"/>
    </edge>
    <edge id=":1990860600_6" function="internal">
        <lane id=":1990860600_6_0" index="0" speed="5.88" length="9.11" shape="1242.07,1517.03 1244.08,1515.31 1244.80,1513.54 1244.23,1511.72 1242.36,1509.84"/>
    </edge>
    <edge id=":1990860600_7" function="internal">
        <lane id=":1990860600_7_0" index="0" speed="13.89" length="14.83" shape="1242.07,1517.03 1254.56,1509.03"/>
    </edge>
    <edge id=":1990860600_8" function="internal">
        <lane id=":1990860600_8_0" index="0" speed="3.65" length="1.44" shape="1242.07,1517.03 1243.51,1517.06"/>
    </edge>
    <edge id=":1990860600_11" function="internal">
        <lane id=":1990860600_11_0" index="0" speed="3.65" length="3.23" shape="1243.51,1517.06 1244.28,1517.52 1244.37,1518.41 1243.79,1519.73"/>
    </edge>
    <edge id=":2055461156_0" function="internal">
        <lane id=":2055461156_0_0" index="0" speed="3.65" length="4.67" shape="1159.18,1032.52 1158.09,1033.47 1157.22,1033.64 1156.55,1033.04 1156.09,1031.68"/>
    </edge>
    <edge id=":2081722939_0" function="internal">
        <lane id=":2081722939_0_0" index="0" speed="12.06" length="1.55" shape="97.83,1252.48 97.39,1252.59 97.07,1252.64 96.76,1252.65 96.30,1252.62"/>
    </edge>
    <edge id=":2081722939_1" function="internal">
        <lane id=":2081722939_1_0" index="0" speed="3.65" length="1.44" shape="97.83,1252.48 96.47,1252.00"/>
    </edge>
    <edge id=":2081722939_4" function="internal">
        <lane id=":2081722939_4_0" index="0" speed="3.65" length="3.23" shape="96.47,1252.00 95.89,1251.32 96.08,1250.45 97.05,1249.38"/>
    </edge>
    <edge id=":2081722939_2" function="internal">
        <lane id=":2081722939_2_0" index="0" speed="13.89" length="0.52" shape="96.54,1249.42 96.69,1249.43 96.80,1249.43 96.90,1249.42 97.05,1249.38"/>
    </edge>
    <edge id=":2081722939_3" function="internal">
        <lane id=":2081722939_3_0" index="0" speed="3.65" length="1.44" shape="96.54,1249.42 97.68,1250.31"/>
    </edge>
    <edge id=":2081722939_5" function="internal">
        <lane id=":2081722939_5_0" index="0" speed="3.65" length="3.23" shape="97.68,1250.31 98.01,1251.14 97.56,1251.91 96.30,1252.62"/>
    </edge>
    <edge id=":245674992_0" function="internal">
        <lane id=":245674992_0_0" index="0" speed="13.89" length="14.76" shape="598.27,1095.01 584.66,1100.71"/>
    </edge>
    <edge id=":245674992_1" function="internal">
        <lane id=":245674992_1_0" index="0" speed="7.52" length="4.58" shape="598.27,1095.01 593.84,1096.14"/>
    </edge>
    <edge id=":245674992_2" function="internal">
        <lane id=":245674992_2_0" index="0" speed="3.65" length="1.44" shape="598.27,1095.01 596.86,1094.73"/>
    </edge>
    <edge id=":245674992_9" function="internal">
        <lane id=":245674992_9_0" index="0" speed="7.52" length="11.19" shape="593.84,1096.14 590.62,1095.39 588.61,1092.76 587.82,1088.25"/>
    </edge>
    <edge id=":245674992_10" function="internal">
        <lane id=":245674992_10_0" index="0" speed="3.65" length="3.23" shape="596.86,1094.73 596.19,1094.14 596.25,1093.25 597.06,1092.05"/>
    </edge>
    <edge id=":245674992_3" function="internal">
        <lane id=":245674992_3_0" index="0" speed="5.87" length="9.11" shape="591.02,1088.15 591.47,1090.75 592.63,1092.27 594.50,1092.71 597.06,1092.05"/>
    </edge>
    <edge id=":245674992_4" function="internal">
        <lane id=":245674992_4_0" index="0" speed="9.62" length="15.02" shape="591.02,1088.15 590.74,1092.57 589.59,1096.13 587.56,1098.85 584.66,1100.71"/>
    </edge>
    <edge id=":245674992_5" function="internal">
        <lane id=":245674992_5_0" index="0" speed="3.65" length="4.67" shape="591.02,1088.15 590.26,1089.37 589.47,1089.80 588.66,1089.43 587.82,1088.25"/>
    </edge>
    <edge id=":245674992_6" function="internal">
        <lane id=":245674992_6_0" index="0" speed="8.37" length="11.17" shape="583.39,1097.77 585.42,1096.42 586.84,1094.39 587.64,1091.66 587.82,1088.25"/>
    </edge>
    <edge id=":245674992_7" function="internal">
        <lane id=":245674992_7_0" index="0" speed="13.89" length="14.82" shape="583.39,1097.77 597.06,1092.05"/>
    </edge>
    <edge id=":245674992_8" function="internal">
        <lane id=":245674992_8_0" index="0" speed="3.65" length="1.44" shape="583.39,1097.77 584.81,1098.03"/>
    </edge>
    <edge id=":245674992_11" function="internal">
        <lane id=":245674992_11_0" index="0" speed="3.65" length="3.23" shape="584.81,1098.03 585.49,1098.61 585.44,1099.50 584.66,1100.71"/>
    </edge>
    <edge id=":3215340463_0" function="internal">
        <lane id=":3215340463_0_0" index="0" speed="6.51" length="9.09" shape="1098.58,771.74 1096.09,771.93 1094.25,772.86 1093.09,774.54 1092.59,776.97"/>
    </edge>
    <edge id=":3215340463_1" function="internal">
        <lane id=":3215340463_1_0" index="0" speed="7.95" length="14.30" shape="1098.58,771.74 1094.74,770.93 1092.11,769.08 1090.70,766.19 1090.50,762.26"/>
    </edge>
    <edge id=":3215340463_2" function="internal">
        <lane id=":3215340463_2_0" index="0" speed="3.65" length="4.67" shape="1098.58,771.74 1097.44,770.86 1097.09,770.04 1097.55,769.27 1098.80,768.55"/>
    </edge>
    <edge id=":3215340463_3" function="internal">
        <lane id=":3215340463_3_0" index="0" speed="6.45" length="9.03" shape="1093.69,762.56 1093.81,765.04 1094.70,766.87 1096.36,768.04 1098.80,768.55"/>
    </edge>
    <edge id=":3215340463_4" function="internal">
        <lane id=":3215340463_4_0" index="0" speed="13.89" length="14.45" shape="1093.69,762.56 1092.59,776.97"/>
    </edge>
    <edge id=":3215340463_5" function="internal">
        <lane id=":3215340463_5_0" index="0" speed="3.65" length="1.44" shape="1093.69,762.56 1092.78,763.68"/>
    </edge>
    <edge id=":3215340463_9" function="internal">
        <lane id=":3215340463_9_0" index="0" speed="3.65" length="3.23" shape="1092.78,763.68 1091.95,764.00 1091.19,763.53 1090.50,762.26"/>
    </edge>
    <edge id=":3215340463_6" function="internal">
        <lane id=":3215340463_6_0" index="0" speed="13.89" length="14.56" shape="1089.39,776.78 1090.50,762.26"/>
    </edge>
    <edge id=":3215340463_7" function="internal">
        <lane id=":3215340463_7_0" index="0" speed="8.00" length="4.19" shape="1089.39,776.78 1090.18,772.96 1090.34,772.72"/>
    </edge>
    <edge id=":3215340463_8" function="internal">
        <lane id=":3215340463_8_0" index="0" speed="3.65" length="1.44" shape="1089.39,776.78 1090.26,775.63"/>
    </edge>
    <edge id=":3215340463_10" function="internal">
        <lane id=":3215340463_10_0" index="0" speed="8.00" length="10.08" shape="1090.34,772.72 1092.01,770.31 1094.88,768.84 1098.80,768.55"/>
    </edge>
    <edge id=":3215340463_11" function="internal">
        <lane id=":3215340463_11_0" index="0" speed="3.65" length="3.23" shape="1090.26,775.63 1091.08,775.28 1091.86,775.72 1092.59,776.97"/>
    </edge>
    <edge id=":3215340464_0" function="internal">
        <lane id=":3215340464_0_0" index="0" speed="13.89" length="14.36" shape="1182.71,768.43 1181.99,782.77"/>
    </edge>
    <edge id=":3215340464_1" function="internal">
        <lane id=":3215340464_1_0" index="0" speed="7.98" length="4.04" shape="1182.71,768.43 1181.95,772.26 1181.87,772.37"/>
    </edge>
    <edge id=":3215340464_2" function="internal">
        <lane id=":3215340464_2_0" index="0" speed="3.65" length="1.44" shape="1182.71,768.43 1181.85,769.58"/>
    </edge>
    <edge id=":3215340464_9" function="internal">
        <lane id=":3215340464_9_0" index="0" speed="7.98" length="10.19" shape="1181.87,772.37 1180.14,774.91 1177.29,776.39 1173.39,776.68"/>
    </edge>
    <edge id=":3215340464_10" function="internal">
        <lane id=":3215340464_10_0" index="0" speed="3.65" length="3.23" shape="1181.85,769.58 1181.03,769.94 1180.25,769.49 1179.52,768.25"/>
    </edge>
    <edge id=":3215340464_3" function="internal">
        <lane id=":3215340464_3_0" index="0" speed="6.48" length="9.03" shape="1173.60,773.49 1176.08,773.30 1177.88,772.37 1179.03,770.68 1179.52,768.25"/>
    </edge>
    <edge id=":3215340464_4" function="internal">
        <lane id=":3215340464_4_0" index="0" speed="8.06" length="14.20" shape="1173.60,773.49 1177.42,774.29 1180.09,776.10 1181.61,778.93 1181.99,782.77"/>
    </edge>
    <edge id=":3215340464_5" function="internal">
        <lane id=":3215340464_5_0" index="0" speed="3.65" length="4.67" shape="1173.60,773.49 1174.75,774.37 1175.09,775.19 1174.64,775.97 1173.39,776.68"/>
    </edge>
    <edge id=":3215340464_6" function="internal">
        <lane id=":3215340464_6_0" index="0" speed="6.58" length="9.11" shape="1178.79,782.62 1178.55,780.16 1177.57,778.36 1175.85,777.20 1173.39,776.68"/>
    </edge>
    <edge id=":3215340464_7" function="internal">
        <lane id=":3215340464_7_0" index="0" speed="13.89" length="14.39" shape="1178.79,782.62 1179.52,768.25"/>
    </edge>
    <edge id=":3215340464_8" function="internal">
        <lane id=":3215340464_8_0" index="0" speed="3.65" length="1.44" shape="1178.79,782.62 1179.65,781.46"/>
    </edge>
    <edge id=":3215340464_11" function="internal">
        <lane id=":3215340464_11_0" index="0" speed="3.65" length="3.23" shape="1179.65,781.46 1180.46,781.10 1181.24,781.53 1181.99,782.77"/>
    </edge>
    <edge id=":4348259294_0" function="internal">
        <lane id=":4348259294_0_0" index="0" speed="3.65" length="4.67" shape="528.92,1220.94 527.54,1220.52 526.92,1219.87 527.07,1218.99 527.99,1217.87"/>
    </edge>
    <edge id=":4348259295_0" function="internal">
        <lane id=":4348259295_0_0" index="0" speed="6.48" length="9.03" shape="584.78,1209.85 583.76,1207.60 582.26,1206.22 580.28,1205.72 577.83,1206.09"/>
    </edge>
    <edge id=":4348259295_1" function="internal">
        <lane id=":4348259295_1_0" index="0" speed="13.89" length="14.40" shape="584.78,1209.85 580.74,1196.03"/>
    </edge>
    <edge id=":4348259295_2" function="internal">
        <lane id=":4348259295_2_0" index="0" speed="3.65" length="1.44" shape="584.78,1209.85 585.21,1208.48"/>
    </edge>
    <edge id=":4348259295_9" function="internal">
        <lane id=":4348259295_9_0" index="0" speed="3.65" length="3.23" shape="585.21,1208.48 585.87,1207.87 586.75,1208.03 587.85,1208.96"/>
    </edge>
    <edge id=":4348259295_3" function="internal">
        <lane id=":4348259295_3_0" index="0" speed="13.89" length="14.40" shape="583.81,1195.13 587.85,1208.96"/>
    </edge>
    <edge id=":4348259295_4" function="internal">
        <lane id=":4348259295_4_0" index="0" speed="8.03" length="4.05" shape="583.81,1195.13 584.36,1198.97 584.32,1199.14"/>
    </edge>
    <edge id=":4348259295_5" function="internal">
        <lane id=":4348259295_5_0" index="0" speed="3.65" length="1.44" shape="583.81,1195.13 583.38,1196.51"/>
    </edge>
    <edge id=":4348259295_10" function="internal">
        <lane id=":4348259295_10_0" index="0" speed="8.03" length="10.16" shape="584.32,1199.14 583.55,1202.07 581.37,1204.45 577.83,1206.09"/>
    </edge>
    <edge id=":4348259295_11" function="internal">
        <lane id=":4348259295_11_0" index="0" speed="3.65" length="3.23" shape="583.38,1196.51 582.73,1197.12 581.85,1196.96 580.74,1196.03"/>
    </edge>
    <edge id=":4348259295_6" function="internal">
        <lane id=":4348259295_6_0" index="0" speed="6.55" length="9.08" shape="576.90,1203.03 579.17,1201.98 580.57,1200.46 581.09,1198.48 580.74,1196.03"/>
    </edge>
    <edge id=":4348259295_7" function="internal">
        <lane id=":4348259295_7_0" index="0" speed="7.98" length="14.23" shape="576.90,1203.03 580.76,1202.44 583.87,1203.23 586.24,1205.40 587.85,1208.96"/>
    </edge>
    <edge id=":4348259295_8" function="internal">
        <lane id=":4348259295_8_0" index="0" speed="3.65" length="4.67" shape="576.90,1203.03 578.28,1203.45 578.90,1204.10 578.75,1204.98 577.83,1206.09"/>
    </edge>
    <edge id=":4348259297_0" function="internal">
        <lane id=":4348259297_0_0" index="0" speed="3.65" length="4.67" shape="573.12,1454.53 571.90,1453.77 571.47,1452.99 571.84,1452.17 573.01,1451.33"/>
    </edge>
    <edge id=":4348259298_0" function="internal">
        <lane id=":4348259298_0_0" index="0" speed="6.64" length="9.11" shape="625.43,1458.00 624.88,1455.69 623.65,1454.07 621.76,1453.13 619.19,1452.89"/>
    </edge>
    <edge id=":4348259298_1" function="internal">
        <lane id=":4348259298_1_0" index="0" speed="13.89" length="14.22" shape="625.43,1458.00 624.28,1443.83"/>
    </edge>
    <edge id=":4348259298_2" function="internal">
        <lane id=":4348259298_2_0" index="0" speed="4.58" length="2.03" shape="625.43,1458.00 626.07,1456.44 626.34,1456.23"/>
    </edge>
    <edge id=":4348259298_9" function="internal">
        <lane id=":4348259298_9_0" index="0" speed="4.58" length="3.43" shape="626.34,1456.23 626.89,1455.80 627.90,1456.07 629.10,1457.26"/>
    </edge>
    <edge id=":4348259298_3" function="internal">
        <lane id=":4348259298_3_0" index="0" speed="9.96" length="13.82" shape="627.47,1443.58 627.63,1446.08 627.97,1450.64 628.47,1455.09 629.10,1457.26"/>
    </edge>
    <edge id=":4348259298_4" function="internal">
        <lane id=":4348259298_4_0" index="0" speed="7.92" length="4.10" shape="627.47,1443.58 627.23,1447.53 627.16,1447.66"/>
    </edge>
    <edge id=":4348259298_5" function="internal">
        <lane id=":4348259298_5_0" index="0" speed="3.65" length="1.44" shape="627.47,1443.58 626.77,1444.84"/>
    </edge>
    <edge id=":4348259298_10" function="internal">
        <lane id=":4348259298_10_0" index="0" speed="7.92" length="10.26" shape="627.16,1447.66 625.77,1450.40 623.08,1452.19 619.19,1452.89"/>
    </edge>
    <edge id=":4348259298_11" function="internal">
        <lane id=":4348259298_11_0" index="0" speed="3.65" length="3.23" shape="626.77,1444.84 626.01,1445.30 625.18,1444.97 624.28,1443.83"/>
    </edge>
    <edge id=":4348259298_6" function="internal">
        <lane id=":4348259298_6_0" index="0" speed="6.41" length="9.04" shape="619.07,1449.69 621.52,1449.25 623.21,1448.13 624.13,1446.32 624.28,1443.83"/>
    </edge>
    <edge id=":4348259298_7" function="internal">
        <lane id=":4348259298_7_0" index="0" speed="13.89" length="12.92" shape="619.07,1449.69 622.11,1450.51 624.25,1452.64 626.31,1455.18 629.10,1457.26"/>
    </edge>
    <edge id=":4348259298_8" function="internal">
        <lane id=":4348259298_8_0" index="0" speed="3.65" length="4.67" shape="619.07,1449.69 620.30,1450.45 620.73,1451.23 620.36,1452.05 619.19,1452.89"/>
    </edge>
    <edge id=":4348259319_0" function="internal">
        <lane id=":4348259319_0_0" index="0" speed="13.89" length="14.55" shape="142.38,1241.45 128.22,1244.80"/>
    </edge>
    <edge id=":4348259319_1" function="internal">
        <lane id=":4348259319_1_0" index="0" speed="9.36" length="3.49" shape="142.38,1241.45 138.89,1241.63"/>
    </edge>
    <edge id=":4348259319_2" function="internal">
        <lane id=":4348259319_2_0" index="0" speed="3.65" length="1.44" shape="142.38,1241.45 141.03,1240.92"/>
    </edge>
    <edge id=":4348259319_9" function="internal">
        <lane id=":4348259319_9_0" index="0" speed="9.36" length="11.32" shape="138.89,1241.63 135.71,1240.60 132.82,1238.36 130.22,1234.92"/>
    </edge>
    <edge id=":4348259319_10" function="internal">
        <lane id=":4348259319_10_0" index="0" speed="3.65" length="3.23" shape="141.03,1240.92 140.47,1240.22 140.70,1239.36 141.70,1238.32"/>
    </edge>
    <edge id=":4348259319_3" function="internal">
        <lane id=":4348259319_3_0" index="0" speed="8.07" length="10.81" shape="132.96,1233.26 134.90,1235.88 137.00,1237.60 139.27,1238.41 141.70,1238.32"/>
    </edge>
    <edge id=":4348259319_4" function="internal">
        <lane id=":4348259319_4_0" index="0" speed="7.58" length="15.46" shape="132.96,1233.26 134.70,1237.35 134.48,1240.63 132.33,1243.12 128.22,1244.80"/>
    </edge>
    <edge id=":4348259319_5" function="internal">
        <lane id=":4348259319_5_0" index="0" speed="3.65" length="4.67" shape="132.96,1233.26 132.90,1234.70 132.42,1235.46 131.53,1235.53 130.22,1234.92"/>
    </edge>
    <edge id=":4348259319_6" function="internal">
        <lane id=":4348259319_6_0" index="0" speed="5.96" length="9.09" shape="127.43,1241.70 129.85,1240.71 131.12,1239.25 131.24,1237.32 130.22,1234.92"/>
    </edge>
    <edge id=":4348259319_7" function="internal">
        <lane id=":4348259319_7_0" index="0" speed="13.89" length="14.66" shape="127.43,1241.70 141.70,1238.32"/>
    </edge>
    <edge id=":4348259319_8" function="internal">
        <lane id=":4348259319_8_0" index="0" speed="3.65" length="1.44" shape="127.43,1241.70 128.79,1242.18"/>
    </edge>
    <edge id=":4348259319_11" function="internal">
        <lane id=":4348259319_11_0" index="0" speed="3.65" length="3.23" shape="128.79,1242.18 129.38,1242.86 129.19,1243.73 128.22,1244.80"/>
    </edge>
    <edge id=":4348259324_0" function="internal">
        <lane id=":4348259324_0_0" index="0" speed="6.64" length="9.21" shape="237.35,1224.36 236.22,1222.06 234.66,1220.64 232.66,1220.10 230.22,1220.44"/>
    </edge>
    <edge id=":4348259324_1" function="internal">
        <lane id=":4348259324_1_0" index="0" speed="7.94" length="14.33" shape="237.35,1224.36 236.66,1220.48 237.39,1217.34 239.56,1214.96 243.16,1213.34"/>
    </edge>
    <edge id=":4348259324_2" function="internal">
        <lane id=":4348259324_2_0" index="0" speed="3.65" length="4.67" shape="237.35,1224.36 237.73,1222.97 238.37,1222.34 239.25,1222.47 240.39,1223.36"/>
    </edge>
    <edge id=":4348259324_3" function="internal">
        <lane id=":4348259324_3_0" index="0" speed="6.43" length="9.03" shape="244.05,1216.41 241.78,1217.44 240.42,1218.94 239.95,1220.91 240.39,1223.36"/>
    </edge>
    <edge id=":4348259324_4" function="internal">
        <lane id=":4348259324_4_0" index="0" speed="13.89" length="14.41" shape="244.05,1216.41 230.22,1220.44"/>
    </edge>
    <edge id=":4348259324_5" function="internal">
        <lane id=":4348259324_5_0" index="0" speed="3.65" length="1.44" shape="244.05,1216.41 242.68,1215.98"/>
    </edge>
    <edge id=":4348259324_9" function="internal">
        <lane id=":4348259324_9_0" index="0" speed="3.65" length="3.23" shape="242.68,1215.98 242.07,1215.32 242.23,1214.44 243.16,1213.34"/>
    </edge>
    <edge id=":4348259324_6" function="internal">
        <lane id=":4348259324_6_0" index="0" speed="13.89" length="14.42" shape="229.32,1217.37 243.16,1213.34"/>
    </edge>
    <edge id=":4348259324_7" function="internal">
        <lane id=":4348259324_7_0" index="0" speed="8.11" length="4.02" shape="229.32,1217.37 233.12,1216.84 233.30,1216.88"/>
    </edge>
    <edge id=":4348259324_8" function="internal">
        <lane id=":4348259324_8_0" index="0" speed="3.65" length="1.44" shape="229.32,1217.37 230.69,1217.80"/>
    </edge>
    <edge id=":4348259324_10" function="internal">
        <lane id=":4348259324_10_0" index="0" speed="8.11" length="10.22" shape="233.30,1216.88 236.23,1217.65 238.65,1219.83 240.39,1223.36"/>
    </edge>
    <edge id=":4348259324_11" function="internal">
        <lane id=":4348259324_11_0" index="0" speed="3.65" length="3.23" shape="230.69,1217.80 231.30,1218.46 231.14,1219.34 230.22,1220.44"/>
    </edge>
    <edge id=":4348259325_0" function="internal">
        <lane id=":4348259325_0_0" index="0" speed="13.89" length="14.40" shape="1313.22,1464.74 1302.33,1474.17"/>
    </edge>
    <edge id=":4348259325_1" function="internal">
        <lane id=":4348259325_1_0" index="0" speed="7.94" length="4.09" shape="1313.22,1464.74 1309.90,1466.87 1309.75,1466.90"/>
    </edge>
    <edge id=":4348259325_2" function="internal">
        <lane id=":4348259325_2_0" index="0" speed="3.65" length="1.44" shape="1313.22,1464.74 1311.79,1464.92"/>
    </edge>
    <edge id=":4348259325_9" function="internal">
        <lane id=":4348259325_9_0" index="0" speed="7.94" length="10.24" shape="1309.75,1466.90 1306.73,1467.40 1303.69,1466.31 1300.81,1463.62"/>
    </edge>
    <edge id=":4348259325_10" function="internal">
        <lane id=":4348259325_10_0" index="0" speed="3.65" length="3.23" shape="1311.79,1464.92 1310.96,1464.58 1310.74,1463.71 1311.13,1462.32"/>
    </edge>
    <edge id=":4348259325_3" function="internal">
        <lane id=":4348259325_3_0" index="0" speed="6.43" length="9.03" shape="1303.30,1461.62 1305.12,1463.31 1307.03,1464.00 1309.03,1463.67 1311.13,1462.32"/>
    </edge>
    <edge id=":4348259325_4" function="internal">
        <lane id=":4348259325_4_0" index="0" speed="8.12" length="14.24" shape="1303.30,1461.62 1305.32,1464.99 1305.84,1468.20 1304.84,1471.26 1302.33,1474.17"/>
    </edge>
    <edge id=":4348259325_5" function="internal">
        <lane id=":4348259325_5_0" index="0" speed="3.65" length="4.67" shape="1303.30,1461.62 1303.43,1463.05 1303.06,1463.87 1302.18,1464.06 1300.81,1463.62"/>
    </edge>
    <edge id=":4348259325_6" function="internal">
        <lane id=":4348259325_6_0" index="0" speed="6.65" length="9.22" shape="1300.24,1471.75 1301.84,1469.88 1302.48,1467.90 1302.13,1465.82 1300.81,1463.62"/>
    </edge>
    <edge id=":4348259325_7" function="internal">
        <lane id=":4348259325_7_0" index="0" speed="13.89" length="14.40" shape="1300.24,1471.75 1311.13,1462.32"/>
    </edge>
    <edge id=":4348259325_8" function="internal">
        <lane id=":4348259325_8_0" index="0" speed="3.65" length="1.44" shape="1300.24,1471.75 1301.67,1471.57"/>
    </edge>
    <edge id=":4348259325_11" function="internal">
        <lane id=":4348259325_11_0" index="0" speed="3.65" length="3.23" shape="1301.67,1471.57 1302.49,1471.91 1302.72,1472.78 1302.33,1474.17"/>
    </edge>
    <edge id=":4348259327_0" function="internal">
        <lane id=":4348259327_0_0" index="0" speed="6.47" length="9.07" shape="1284.96,1315.39 1282.48,1315.59 1280.69,1316.55 1279.56,1318.26 1279.11,1320.72"/>
    </edge>
    <edge id=":4348259327_1" function="internal">
        <lane id=":4348259327_1_0" index="0" speed="13.89" length="16.31" shape="1284.96,1315.39 1268.66,1314.91"/>
    </edge>
    <edge id=":4348259327_2" function="internal">
        <lane id=":4348259327_2_0" index="0" speed="10.82" length="3.94" shape="1284.96,1315.39 1281.57,1314.43 1281.21,1314.21"/>
    </edge>
    <edge id=":4348259327_3" function="internal">
        <lane id=":4348259327_3_0" index="0" speed="3.65" length="1.44" shape="1284.96,1315.39 1283.81,1314.52"/>
    </edge>
    <edge id=":4348259327_16" function="internal">
        <lane id=":4348259327_16_0" index="0" speed="10.82" length="12.36" shape="1281.21,1314.21 1277.95,1312.22 1274.69,1309.20 1272.37,1305.83"/>
    </edge>
    <edge id=":4348259327_17" function="internal">
        <lane id=":4348259327_17_0" index="0" speed="3.65" length="3.23" shape="1283.81,1314.52 1283.46,1313.69 1283.91,1312.92 1285.15,1312.19"/>
    </edge>
    <edge id=":4348259327_4" function="internal">
        <lane id=":4348259327_4_0" index="0" speed="9.78" length="13.21" shape="1275.24,1304.43 1277.21,1307.68 1279.52,1310.06 1282.16,1311.57 1285.15,1312.19"/>
    </edge>
    <edge id=":4348259327_5" function="internal">
        <lane id=":4348259327_5_0" index="0" speed="13.89" length="16.88" shape="1275.24,1304.43 1276.80,1308.17 1278.07,1312.39 1278.90,1316.70 1279.11,1320.72"/>
    </edge>
    <edge id=":4348259327_6" function="internal">
        <lane id=":4348259327_6_0" index="0" speed="7.44" length="16.36" shape="1275.24,1304.43 1276.75,1309.04 1276.16,1312.32 1273.46,1314.28 1268.66,1314.91"/>
    </edge>
    <edge id=":4348259327_7" function="internal">
        <lane id=":4348259327_7_0" index="0" speed="3.65" length="4.67" shape="1275.24,1304.43 1275.05,1305.86 1274.50,1306.57 1273.61,1306.56 1272.37,1305.83"/>
    </edge>
    <edge id=":4348259327_8" function="internal">
        <lane id=":4348259327_8_0" index="0" speed="5.74" length="9.18" shape="1268.67,1311.71 1271.36,1311.35 1272.88,1310.26 1273.21,1308.41 1272.37,1305.83"/>
    </edge>
    <edge id=":4348259327_9" function="internal">
        <lane id=":4348259327_9_0" index="0" speed="13.89" length="16.49" shape="1268.67,1311.71 1285.15,1312.19"/>
    </edge>
    <edge id=":4348259327_10" function="internal">
        <lane id=":4348259327_10_0" index="0" speed="8.31" length="5.22" shape="1268.67,1311.71 1273.37,1312.29 1273.80,1312.51"/>
    </edge>
    <edge id=":4348259327_11" function="internal">
        <lane id=":4348259327_11_0" index="0" speed="3.65" length="1.44" shape="1268.67,1311.71 1269.87,1312.52"/>
    </edge>
    <edge id=":4348259327_18" function="internal">
        <lane id=":4348259327_18_0" index="0" speed="8.31" length="10.60" shape="1273.80,1312.51 1276.68,1313.99 1278.59,1316.80 1279.11,1320.72"/>
    </edge>
    <edge id=":4348259327_19" function="internal">
        <lane id=":4348259327_19_0" index="0" speed="3.65" length="3.23" shape="1269.87,1312.52 1270.26,1313.32 1269.86,1314.12 1268.66,1314.91"/>
    </edge>
    <edge id=":4348259327_12" function="internal">
        <lane id=":4348259327_12_0" index="0" speed="6.89" length="10.53" shape="1275.91,1320.60 1275.54,1318.12 1274.21,1316.35 1271.91,1315.28 1268.66,1314.91"/>
    </edge>
    <edge id=":4348259327_13" function="internal">
        <lane id=":4348259327_13_0" index="0" speed="13.89" length="15.32" shape="1275.91,1320.60 1275.75,1316.81 1275.03,1313.03 1273.87,1309.33 1272.37,1305.83"/>
    </edge>
    <edge id=":4348259327_14" function="internal">
        <lane id=":4348259327_14_0" index="0" speed="7.97" length="14.31" shape="1275.91,1320.60 1276.62,1316.72 1278.40,1314.03 1281.24,1312.52 1285.15,1312.19"/>
    </edge>
    <edge id=":4348259327_15" function="internal">
        <lane id=":4348259327_15_0" index="0" speed="3.65" length="4.67" shape="1275.91,1320.60 1276.76,1319.43 1277.57,1319.06 1278.36,1319.49 1279.11,1320.72"/>
    </edge>
    <edge id=":4348259328_0" function="internal">
        <lane id=":4348259328_0_0" index="0" speed="3.65" length="4.67" shape="1265.27,1291.25 1265.47,1289.82 1266.01,1289.11 1266.91,1289.12 1268.15,1289.85"/>
    </edge>
    <edge id=":4348259329_0" function="internal">
        <lane id=":4348259329_0_0" index="0" speed="3.65" length="4.67" shape="1141.31,1409.05 1140.77,1410.39 1140.07,1410.95 1139.20,1410.72 1138.18,1409.70"/>
    </edge>
    <edge id=":4348259330_0" function="internal">
        <lane id=":4348259330_0_0" index="0" speed="3.65" length="4.67" shape="1243.73,1378.68 1242.59,1377.80 1242.24,1376.97 1242.69,1376.20 1243.94,1375.48"/>
    </edge>
    <edge id=":4348259331_0" function="internal">
        <lane id=":4348259331_0_0" index="0" speed="6.83" length="9.33" shape="1273.79,1386.07 1273.35,1383.66 1272.21,1381.89 1270.36,1380.75 1267.81,1380.24"/>
    </edge>
    <edge id=":4348259331_1" function="internal">
        <lane id=":4348259331_1_0" index="0" speed="13.89" length="14.29" shape="1273.79,1386.07 1273.87,1371.78"/>
    </edge>
    <edge id=":4348259331_2" function="internal">
        <lane id=":4348259331_2_0" index="0" speed="3.65" length="1.44" shape="1273.79,1386.07 1274.55,1384.85"/>
    </edge>
    <edge id=":4348259331_9" function="internal">