<edges>
<edge from="250078367" to="5495470092" id="250078367to5495470092" numLanes="1" shape="759.519505176926,-858.0696168751456 721.0097817489877,-841.2808428118005" />
<edge from="250078367" to="5457772558" id="250078367to5457772558" numLanes="1" shape="759.519505176926,-858.0696168751456 763.526377023547,-850.7344680768438" />
<edge from="250078367" to="301037306" id="250078367to301037306" numLanes="1" shape="759.519505176926,-858.0696168751456 772.3802673737518,-862.1354589653201" />
<edge from="250078367" to="5495470087" id="250078367to5495470087" numLanes="1" shape="759.519505176926,-858.0696168751456 759.519505176926,-858.0696168751456 753.1562754019396,-873.0533395577222 738.2146208612248,-908.7598642422818" />
<edge from="301037269" to="301037295" id="301037269to301037295" numLanes="1" shape="1105.0667222968768,17.081927632912993 1127.019470107276,70.14651841018349" />
<edge from="301037269" to="910664969" id="301037269to910664969" numLanes="1" shape="1105.0667222968768,17.081927632912993 1105.5920998712536,29.51966361468658 1104.8299760794034,35.836119684856385 1104.0923105427064,41.8869464029558 1100.6028260493185,53.85182947712019 1095.2078456395539,65.09434883855283 1088.0596644247416,75.3179651494138 1079.3491102388361,84.26010711910203 1069.2961640297435,91.66982569592074 1069.2961640297435,91.66982569592074" />
<edge from="301037269" to="2102480798" id="301037269to2102480798" numLanes="1" shape="1105.0667222968768,17.081927632912993 1105.0667222968768,17.081927632912993 1093.215070786653,-13.501943433657289 1045.199938454898,-137.38945454824716" />
<edge from="301037275" to="910664797" id="301037275to910664797" numLanes="1" shape="1139.183088487247,101.3237621113658 1154.2468080298277,131.30151387304068" />
<edge from="301037275" to="301037313" id="301037275to301037313" numLanes="1" shape="1139.183088487247,101.3237621113658 1152.3200548833702,96.56502106273547" />
<edge from="301037275" to="301037295" id="301037275to301037295" numLanes="1" shape="1139.183088487247,101.3237621113658 1127.019470107276,70.14651841018349" />
<edge from="301037275" to="910665361" id="301037275to910665361" numLanes="1" shape="1139.183088487247,101.3237621113658 1109.9679467583774,108.94688815670088" />
<edge from="301037285" to="910665402" id="301037285to910665402" numLanes="1" shape="-199.71140990091953,536.5637284396216 -170.2463349122554,522.1016766545363 -31.51448270364199,463.1720734559931 75.0659553980222,417.9024139060639 214.32963566551916,356.2690434823744 300.4430059455335,328.6314813969657 470.1500162681332,274.1767635862343 549.3517992374254,248.76471473742276 619.405939446995,226.27868762612343 619.405939446995,226.27868762612343" />
<edge from="301037285" to="6596217462" id="301037285to6596217462" numLanes="1" shape="-199.71140990091953,536.5637284396216 -199.71140990091953,536.5637284396216 -209.1240598707227,549.1857165177353 -421.8748415398877,637.4211478433572 -472.37655603548046,658.3626955039799 -523.1642840222921,683.1905917753465 -539.0392299549421,693.777030960191" />
<edge from="301037295" to="301037269" id="301037295to301037269" numLanes="1" shape="1127.019470107276,70.14651841018349 1105.0667222968768,17.081927632912993" />
<edge from="301037295" to="910664969" id="301037295to910664969" numLanes="1" shape="1127.019470107276,70.14651841018349 1069.2961640297435,91.66982569592074" />
<edge from="301037295" to="301037275" id="301037295to301037275" numLanes="1" shape="1127.019470107276,70.14651841018349 1139.183088487247,101.3237621113658" />
<edge from="301037295" to="560224231" id="301037295to560224231" numLanes="1" shape="1127.019470107276,70.14651841018349 1139.7876225425862,64.68253038311377" />
<edge from="301037306" to="250078367" id="301037306to250078367" numLanes="1" shape="772.3802673737518,-862.1354589653201 759.519505176926,-858.0696168751456" />
<edge from="301037306" to="3742620469" id="301037306to3742620469" numLanes="1" shape="772.3802673737518,-862.1354589653201 764.2179806360509,-878.316256755963 745.2943559375126,-923.7854395294562 745.2943559375126,-923.7854395294562" />
<edge from="301037306" to="4233648177" id="301037306to4233648177" numLanes="1" shape="772.3802673737518,-862.1354589653201 779.2160553489812,-847.8304275907576" />
<edge from="301037306" to="5457772558" id="301037306to5457772558" numLanes="1" shape="772.3802673737518,-862.1354589653201 763.526377023547,-850.7344680768438" />
<edge from="301037313" to="301037275" id="301037313to301037275" numLanes="1" shape="1152.3200548833702,96.56502106273547 1139.183088487247,101.3237621113658" />
<edge from="301037313" to="560224231" id="301037313to560224231" numLanes="1" shape="1152.3200548833702,96.56502106273547 1139.7876225425862,64.68253038311377" />
<edge from="301037313" to="910664831" id="301037313to910664831" numLanes="1" shape="1152.3200548833702,96.56502106273547 1184.0073621053016,81.73677017074078" />
<edge from="301037313" to="910665134" id="301037313to910665134" numLanes="1" shape="1152.3200548833702,96.56502106273547 1174.0630589891225,142.3752358504571" />
<edge from="388048380" to="2102480322" id="388048380to2102480322" numLanes="1" shape="921.9682007385418,-516.3513549417257 909.8172974523623,-512.0066001815721" />
<edge from="388048380" to="4233654377" id="388048380to4233654377" numLanes="1" shape="921.9682007385418,-516.3513549417257 875.4290848905221,-613.126178835053" />
<edge from="388048380" to="388048381" id="388048380to388048381" numLanes="1" shape="921.9682007385418,-516.3513549417257 990.3837643668521,-536.7480927277356 1016.4478095982922,-543.8307921262458 1016.4478095982922,-543.8307921262458" />
<edge from="388048380" to="4233713905" id="388048380to4233713905" numLanes="1" shape="921.9682007385418,-516.3513549417257 921.9682007385418,-516.3513549417257 961.601368852309,-379.39215940237045 977.9124386771582,-330.8994152494706 1019.0236448291689,-231.87326816562563" />
<edge from="388048381" to="388048380" id="388048381to388048380" numLanes="1" shape="1016.4478095982922,-543.8307921262458 1016.4478095982922,-543.8307921262458 990.3837643668521,-536.7480927277356 921.9682007385418,-516.3513549417257" />
<edge from="388048381" to="4233654399" id="388048381to4233654399" numLanes="1" shape="1016.4478095982922,-543.8307921262458 1010.3685645995429,-557.7230027508922" />
<edge from="388048381" to="388048386" id="388048381to388048386" numLanes="1" shape="1016.4478095982922,-543.8307921262458 1075.0362862242619,-559.5293228575028 1192.5350143937394,-587.0947558619082 1197.6904474927578,-587.4102596216835 1200.5733027979732,-587.1244845078327 1200.5733027979732,-587.1244845078327" />
<edge from="388048386" to="388048381" id="388048386to388048381" numLanes="1" shape="1200.5733027979732,-587.1244845078327 1200.5733027979732,-587.1244845078327 1197.6904474927578,-587.4102596216835 1192.5350143937394,-587.0947558619082 1075.0362862242619,-559.5293228575028 1016.4478095982922,-543.8307921262458" />
<edge from="388048386" to="4233654379" id="388048386to4233654379" numLanes="1" shape="1200.5733027979732,-587.1244845078327 1198.7524132679682,-598.8543012905866" />
<edge from="560224224" to="6596217466" id="560224224to6596217466" numLanes="1" shape="-166.5657417239854,507.6344595984556 -179.08596735598985,506.02002516109496 -191.8866271020379,509.5778875388205 -229.7041160943918,524.1646778336726 -433.99969654891174,611.9892979925498 -479.50845788337756,630.749216221273 -534.7471500085667,658.090247395914 -554.6835648557171,671.3077723248862 -554.6835648557171,671.3077723248862" />
<edge from="560224224" to="4233527036" id="560224224to4233527036" numLanes="1" shape="-166.5657417239854,507.6344595984556 -166.5657417239854,507.6344595984556 -145.35387921053916,499.66258288081735 -131.82560067996383,494.3220415925607 19.693190117366612,428.87484123930335 54.45501968730241,413.8670966178179" />
<edge from="560224231" to="301037313" id="560224231to301037313" numLanes="1" shape="1139.7876225425862,64.68253038311377 1152.3200548833702,96.56502106273547" />
<edge from="560224231" to="910665302" id="560224231to910665302" numLanes="1" shape="1139.7876225425862,64.68253038311377 1125.869684768375,24.016190454829484" />
<edge from="560224231" to="301037295" id="560224231to301037295" numLanes="1" shape="1139.7876225425862,64.68253038311377 1127.019470107276,70.14651841018349" />
<edge from="560224231" to="910664896" id="560224231to910664896" numLanes="1" shape="1139.7876225425862,64.68253038311377 1172.7411235362524,50.74225845467299" />
<edge from="564483317" to="4233524655" id="564483317to4233524655" numLanes="1" shape="-739.3319778974401,59.5065961163491 -788.1580178830773,82.95243066689" />
<edge from="564483317" to="4233524647" id="564483317to4233524647" numLanes="1" shape="-739.3319778974401,59.5065961163491 -703.8428340109531,43.2570785433054" />
<edge from="564483317" to="4233524630" id="564483317to4233524630" numLanes="1" shape="-739.3319778974401,59.5065961163491 -776.2268085213145,-16.408991165459156" />
<edge from="565507031" to="9782043717" id="565507031to9782043717" numLanes="1" shape="-737.6769115948118,832.9735681554303 -733.1602709653089,829.5303344889544" />
<edge from="565507031" to="2009503273" id="565507031to2009503273" numLanes="1" shape="-737.6769115948118,832.9735681554303 -758.6416434893617,810.7735417066142" />
<edge from="565507031" to="4233126893" id="565507031to4233126893" numLanes="1" shape="-737.6769115948118,832.9735681554303 -794.6832258672221,873.0773046500981" />
<edge from="565507035" to="2009503256" id="565507035to2009503256" numLanes="1" shape="-750.9246848267503,805.2156361918896 -767.6735910176067,781.5735672549345" />
<edge from="565507035" to="2009503273" id="565507035to2009503273" numLanes="1" shape="-750.9246848267503,805.2156361918896 -758.6416434893617,810.7735417066142" />
<edge from="565507035" to="2009503262" id="565507035to2009503262" numLanes="1" shape="-750.9246848267503,805.2156361918896 -720.7644867644412,784.7560932175256" />
<edge from="565507035" to="9782043717" id="565507035to9782043717" numLanes="1" shape="-750.9246848267503,805.2156361918896 -733.1602709653089,829.5303344889544" />
<edge from="565507037" to="6657298611" id="565507037to6657298611" numLanes="1" shape="-577.002442682744,719.1050146794878 -567.7313123937929,713.1431733439676" />
<edge from="565507037" to="9782043719" id="565507037to9782043719" numLanes="1" shape="-577.002442682744,719.1050146794878 -597.5642879697261,696.8233478842303" />
<edge from="565507037" to="6657298613" id="565507037to6657298613" numLanes="1" shape="-577.002442682744,719.1050146794878 -577.002442682744,719.1050146794878 -573.3017241329653,723.3742487127893 -551.2410232431721,748.809680620674" />
<edge from="565507037" to="7036718555" id="565507037to7036718555" numLanes="1" shape="-577.002442682744,719.1050146794878 -583.0019759360002,723.3415670529939" />
<edge from="566993232" to="9837660586" id="566993232to9837660586" numLanes="1" shape="-1197.682114064577,-79.10706477006897 -1140.8386033155257,15.406680278945714" />
<edge from="566993232" to="2009503166" id="566993232to2009503166" numLanes="1" shape="-1197.682114064577,-79.10706477006897 -1188.4434093779419,-84.34938511345536" />
<edge from="910664797" to="301037275" id="910664797to301037275" numLanes="1" shape="1154.2468080298277,131.30151387304068 1139.183088487247,101.3237621113658" />
<edge from="910664797" to="3626033097" id="910664797to3626033097" numLanes="1" shape="1154.2468080298277,131.30151387304068 1196.5975007070228,214.89662452833727" />
<edge from="910664797" to="5485189773" id="910664797to5485189773" numLanes="1" shape="1154.2468080298277,131.30151387304068 1154.2468080298277,131.30151387304068 1148.5769243271789,124.99993993109092 1142.9468185893493,119.73015488870442 1135.5462462463183,115.97997702239081 1127.6335545920301,113.46209791954607 1124.665223834454,112.50956006487831" />
<edge from="910664831" to="301037313" id="910664831to301037313" numLanes="1" shape="1184.0073621053016,81.73677017074078 1152.3200548833702,96.56502106273547" />
<edge from="910664831" to="5485189772" id="910664831to5485189772" numLanes="1" shape="1184.0073621053016,81.73677017074078 1184.0073621053016,81.73677017074078 1181.7420755513012,83.54661544552073 1179.0631298221415,86.02514467015862 1176.7595395111712,88.85425554960966 1174.8812541654333,91.97943247715011 1173.468640473904,95.33489720057696 1172.5424923886312,98.85451192082837 1172.1333900850732,102.47231868980452 1172.2427583739627,106.11073737079278 1172.8622357766144,109.69200810231268" />
<edge from="910664896" to="560224231" id="910664896to560224231" numLanes="1" shape="1172.7411235362524,50.74225845467299 1139.7876225425862,64.68253038311377" />
<edge from="910664896" to="910665302" id="910664896to910665302" numLanes="1" shape="1172.7411235362524,50.74225845467299 1163.1372537489515,50.75429659103975 1153.7459818151547,48.78574449568987 1144.9573319797637,44.92137274052948 1137.1694873018423,39.33479345636442 1130.7109067704296,32.26485674735159 1125.869684768375,24.016190454829484 1125.869684768375,24.016190454829484" />
<edge from="910664903" to="4233527036" id="910664903to4233527036" numLanes="1" shape="772.9662142690504,177.020091063343 654.6436498089461,207.82232238398865 616.3356548785232,216.46623834455386 478.4490988816833,259.87187019735575 209.8246259612497,346.74090245971456 69.34444309619721,407.4429989778437 54.45501968730241,413.8670966178179 54.45501968730241,413.8670966178179" />
<edge from="910664903" to="5548729337" id="910664903to5548729337" numLanes="1" shape="772.9662142690504,177.020091063343 772.9662142690504,177.020091063343 827.475930140703,151.84440134372562 957.185148794204,121.03108064038679 1005.5898612577002,109.55802497593686" />
<edge from="910664945" to="3626033118" id="910664945to3626033118" numLanes="1" shape="777.9005921615753,189.27256461884826 834.7249699019594,184.67172361072153 898.8896275220904,170.03943226160482 898.8896275220904,170.03943226160482" />
<edge from="910664945" to="910665402" id="910664945to910665402" numLanes="1" shape="777.9005921615753,189.27256461884826 777.9005921615753,189.27256461884826 759.0248629869893,193.09497570432723 723.7003935049288,200.25222701067105 703.9796393195866,204.24770264094695 664.0447450475767,214.5911475084722 622.6444793312112,225.3069849400781 619.405939446995,226.27868762612343" />
<edge from="910664969" to="301037269" id="910664969to301037269" numLanes="1" shape="1069.2961640297435,91.66982569592074 1069.2961640297435,91.66982569592074 1079.3491102388361,84.26010711910203 1088.0596644247416,75.3179651494138 1095.2078456395539,65.09434883855283 1100.6028260493185,53.85182947712019 1104.0923105427064,41.8869464029558 1104.8299760794034,35.836119684856385 1105.5920998712536,29.51966361468658 1105.0667222968768,17.081927632912993" />
<edge from="910664969" to="301037295" id="910664969to301037295" numLanes="1" shape="1069.2961640297435,91.66982569592074 1127.019470107276,70.14651841018349" />
<edge from="910664969" to="5548729337" id="910664969to5548729337" numLanes="1" shape="1069.2961640297435,91.66982569592074 1058.9331989416387,95.17137425253168 1005.5898612577002,109.55802497593686 1005.5898612577002,109.55802497593686" />
<edge from="910665134" to="301037313" id="910665134to301037313" numLanes="1" shape="1174.0630589891225,142.3752358504571 1152.3200548833702,96.56502106273547" />
<edge from="910665134" to="5485189772" id="910665134to5485189772" numLanes="1" shape="1174.0630589891225,142.3752358504571 1172.8622357766144,109.69200810231268" />
<edge from="910665134" to="6404933451" id="910665134to6404933451" numLanes="1" shape="1174.0630589891225,142.3752358504571 1188.119413577835,170.1615596539341" />
<edge from="910665302" to="560224231" id="910665302to560224231" numLanes="1" shape="1125.869684768375,24.016190454829484 1139.7876225425862,64.68253038311377" />
<edge from="910665302" to="910664896" id="910665302to910664896" numLanes="1" shape="1125.869684768375,24.016190454829484 1125.869684768375,24.016190454829484 1130.7109067704296,32.26485674735159 1137.1694873018423,39.33479345636442 1144.9573319797637,44.92137274052948 1153.7459818151547,48.78574449568987 1163.1372537489515,50.75429659103975 1172.7411235362524,50.74225845467299" />
<edge from="910665302" to="4233713969" id="910665302to4233713969" numLanes="1" shape="1125.869684768375,24.016190454829484 1117.0080065197544,6.003988450393081" />
<edge from="910665341" to="5548729337" id="910665341to5548729337" numLanes="1" shape="1014.5412598163821,142.41674605943263 1020.8850641507888,138.67507406603545 1025.068267346127,132.64315682835877 1026.3073938849848,125.40418156096712 1024.3814818119863,118.32882981654257 1019.638802194735,112.70954337250441 1012.9607700908091,109.59356106445193 1005.5898612577002,109.55802497593686 1005.5898612577002,109.55802497593686" />
<edge from="910665341" to="3626033121" id="910665341to3626033121" numLanes="1" shape="1014.5412598163821,142.41674605943263 1048.0663074497133,129.85029770294204 1060.907795692794,125.71797093376517 1060.907795692794,125.71797093376517" />
<edge from="910665341" to="3626033118" id="910665341to3626033118" numLanes="1" shape="1014.5412598163821,142.41674605943263 1014.5412598163821,142.41674605943263 964.0210507139564,155.0150190293789 898.8896275220904,170.03943226160482" />
<edge from="910665361" to="5485189773" id="910665361to5485189773" numLanes="1" shape="1109.9679467583774,108.94688815670088 1124.665223834454,112.50956006487831" />
<edge from="910665361" to="301037275" id="910665361to301037275" numLanes="1" shape="1109.9679467583774,108.94688815670088 1139.183088487247,101.3237621113658" />
<edge from="910665361" to="6474960124" id="910665361to6474960124" numLanes="1" shape="1109.9679467583774,108.94688815670088 1071.9319288769038,122.4613861492835" />
<edge from="910665402" to="301037285" id="910665402to301037285" numLanes="1" shape="619.405939446995,226.27868762612343 619.405939446995,226.27868762612343 549.3517992374254,248.76471473742276 470.1500162681332,274.1767635862343 300.4430059455335,328.6314813969657 214.32963566551916,356.2690434823744 75.0659553980222,417.9024139060639 -31.51448270364199,463.1720734559931 -170.2463349122554,522.1016766545363 -199.71140990091953,536.5637284396216" />
<edge from="910665402" to="910664945" id="910665402to910664945" numLanes="1" shape="619.405939446995,226.27868762612343 622.6444793312112,225.3069849400781 664.0447450475767,214.5911475084722 703.9796393195866,204.24770264094695 723.7003935049288,200.25222701067105 759.0248629869893,193.09497570432723 777.9005921615753,189.27256461884826 777.9005921615753,189.27256461884826" />
<edge from="910665402" to="3626040092" id="910665402to3626040092" numLanes="1" shape="619.405939446995,226.27868762612343 621.1328154064249,232.47446905169636 622.7577655139612,238.89011452859268 624.5201629945077,245.81826175143942 633.7658957673702,282.4292786652222 633.7658957673702,282.4292786652222" />
<edge from="1130872481" to="4233654581" id="1130872481to4233654581" numLanes="1" shape="-1101.4235906805843,-255.6387830604799 -1045.8052940738853,-151.33537757257" />
<edge from="1130872481" to="4233654524" id="1130872481to4233654524" numLanes="1" shape="-1101.4235906805843,-255.6387830604799 -1114.457135604811,-248.4477577060461" />
<edge from="1130872481" to="9832569149" id="1130872481to9832569149" numLanes="1" shape="-1101.4235906805843,-255.6387830604799 -990.0501654718537,-315.69805320724845 -987.5091140698642,-316.5387600250542 -984.6301686733495,-317.1183334393427 -981.9156447339337,-316.1931398338638 -981.9156447339337,-316.1931398338638" />
<edge from="1147571742" to="4233654585" id="1147571742to4233654585" numLanes="1" shape="-881.4090598652838,-135.662410994526 -887.1638875356875,-145.9666579430923" />
<edge from="1147571742" to="5457772589" id="1147571742to5457772589" numLanes="1" shape="-881.4090598652838,-135.662410994526 -874.4434355549747,-123.57338237343356" />
<edge from="1147571742" to="2009503169" id="1147571742to2009503169" numLanes="1" shape="-881.4090598652838,-135.662410994526 -943.078337096842,-96.67355894530192 -1005.9158646314172,-60.710085625294596 -1005.9158646314172,-60.710085625294596" />
<edge from="1147571742" to="4233654495" id="1147571742to4233654495" numLanes="1" shape="-881.4090598652838,-135.662410994526 -881.4090598652838,-135.662410994526 -877.906158191734,-137.71618720982224 -870.1865598898148,-142.8528752895072 -764.5286089992151,-213.20248195482418 -733.9012893660692,-233.37656991602853 -650.8523253557505,-289.95729386014864" />
<edge from="1901092130" to="4233654402" id="1901092130to4233654402" numLanes="1" shape="-692.3727821925422,-572.6422514533624 -741.6684908682946,-554.1938726217486" />
<edge from="1901092130" to="4233654398" id="1901092130to4233654398" numLanes="1" shape="-692.3727821925422,-572.6422514533624 -642.4523723251186,-589.9038927229121" />
<edge from="1901092130" to="4233654406" id="1901092130to4233654406" numLanes="1" shape="-692.3727821925422,-572.6422514533624 -673.7703815231798,-522.1816147398204" />
<edge from="1901092130" to="9834969315" id="1901092130to9834969315" numLanes="1" shape="-692.3727821925422,-572.6422514533624 -701.3475540593499,-596.9852355397306" />
<edge from="1901092237" to="4233654484" id="1901092237to4233654484" numLanes="1" shape="-600.1321554954629,-322.1597568579018 -630.2036255404819,-302.430403504055" />
<edge from="1901092237" to="5553734986" id="1901092237to5553734986" numLanes="1" shape="-600.1321554954629,-322.1597568579018 -591.4484458137304,-313.0325971529819" />
<edge from="1901092237" to="4233654409" id="1901092237to4233654409" numLanes="1" shape="-600.1321554954629,-322.1597568579018 -602.0103345070966,-325.4644827195443 -660.112295875093,-485.1479965238832 -660.112295875093,-485.1479965238832" />
<edge from="1901092237" to="4233654442" id="1901092237to4233654442" numLanes="1" shape="-600.1321554954629,-322.1597568579018 -600.1321554954629,-322.1597568579018 -593.8388316496275,-326.9120655534789 -587.120439535589,-331.88944289600477 -580.7801913577132,-336.53002571547404 -539.3018972318387,-363.3241342799738" />
<edge from="2009503166" to="566993232" id="2009503166to566993232" numLanes="1" shape="-1188.4434093779419,-84.34938511345536 -1197.682114064577,-79.10706477006897" />
<edge from="2009503166" to="2009503172" id="2009503166to2009503172" numLanes="1" shape="-1188.4434093779419,-84.34938511345536 -1133.6897348471684,10.957908247131854" />
<edge from="2009503169" to="1147571742" id="2009503169to1147571742" numLanes="1" shape="-1005.9158646314172,-60.710085625294596 -1005.9158646314172,-60.710085625294596 -943.078337096842,-96.67355894530192 -881.4090598652838,-135.662410994526" />
<edge from="2009503169" to="2009503172" id="2009503169to2009503172" numLanes="1" shape="-1005.9158646314172,-60.710085625294596 -1077.4430189864943,-21.1459758579731 -1087.498427469749,-15.674687087535858 -1121.8456834076205,2.947039188351482 -1133.6897348471684,10.957908247131854 -1133.6897348471684,10.957908247131854" />
<edge from="2009503169" to="4233654581" id="2009503169to4233654581" numLanes="1" shape="-1005.9158646314172,-60.710085625294596 -1030.4612266140757,-126.23384817596525 -1034.3264275649562,-133.8650812972337 -1040.726995888399,-144.73530551418662 -1045.8052940738853,-151.33537757257 -1045.8052940738853,-151.33537757257" />
<edge from="2009503172" to="2009503169" id="2009503172to2009503169" numLanes="1" shape="-1133.6897348471684,10.957908247131854 -1133.6897348471684,10.957908247131854 -1121.8456834076205,2.947039188351482 -1087.498427469749,-15.674687087535858 -1077.4430189864943,-21.1459758579731 -1005.9158646314172,-60.710085625294596" />
<edge from="2009503172" to="2009503166" id="2009503172to2009503166" numLanes="1" shape="-1133.6897348471684,10.957908247131854 -1188.4434093779419,-84.34938511345536" />
<edge from="2009503172" to="9837660586" id="2009503172to9837660586" numLanes="1" shape="-1133.6897348471684,10.957908247131854 -1140.8386033155257,15.406680278945714" />
<edge from="2009503172" to="5457772594" id="2009503172to5457772594" numLanes="1" shape="-1133.6897348471684,10.957908247131854 -1126.1348591101123,23.489857157692313" />
<edge from="2009503212" to="6434773507" id="2009503212to6434773507" numLanes="1" shape="-1004.5316012224648,308.87079920014367 -1005.4347053958336,305.24019025685266" />
<edge from="2009503212" to="4233527037" id="2009503212to4233527037" numLanes="1" shape="-1004.5316012224648,308.87079920014367 -978.4144461181713,398.23703995347023" />
<edge from="2009503212" to="6434773522" id="2009503212to6434773522" numLanes="1" shape="-1004.5316012224648,308.87079920014367 -1012.0803015937563,311.62707148958" />
<edge from="2009503218" to="4233527037" id="2009503218to4233527037" numLanes="1" shape="-966.9572981091915,435.6959542450495 -978.4144461181713,398.23703995347023" />
<edge from="2009503218" to="4233527040" id="2009503218to4233527040" numLanes="1" shape="-966.9572981091915,435.6959542450495 -925.1745500934776,417.79762127483264" />
<edge from="2009503218" to="4233527068" id="2009503218to4233527068" numLanes="1" shape="-966.9572981091915,435.6959542450495 -966.9572981091915,435.6959542450495 -949.2320090723224,499.3442790755071 -942.4970283447765,516.018901349511" />
<edge from="2009503244" to="4233527084" id="2009503244to4233527084" numLanes="1" shape="-884.1510840922128,615.3621402704157 -897.063664982561,599.2734910398722" />
<edge from="2009503244" to="2009503247" id="2009503244to2009503247" numLanes="1" shape="-884.1510840922128,615.3621402704157 -894.8043126289267,622.5074953241274" />
<edge from="2009503244" to="4233527088" id="2009503244to4233527088" numLanes="1" shape="-884.1510840922128,615.3621402704157 -858.1466416108888,653.8176957936957" />
<edge from="2009503247" to="2009503244" id="2009503247to2009503244" numLanes="1" shape="-894.8043126289267,622.5074953241274 -884.1510840922128,615.3621402704157" />
<edge from="2009503247" to="9835570304" id="2009503247to9835570304" numLanes="1" shape="-894.8043126289267,622.5074953241274 -902.0844812860014,627.7297665900551" />
<edge from="2009503247" to="6436259789" id="2009503247to6436259789" numLanes="1" shape="-894.8043126289267,622.5074953241274 -867.1248847756069,659.8294347329065" />
<edge from="2009503247" to="4233301013" id="2009503247to4233301013" numLanes="1" shape="-894.8043126289267,622.5074953241274 -894.8043126289267,622.5074953241274 -924.9486006466905,577.5354716219008 -941.8275450370274,544.3237304380164 -958.7694491273724,502.72951411036775 -974.1362978472607,451.49659594055265" />
<edge from="2009503253" to="2009503273" id="2009503253to2009503273" numLanes="1" shape="-781.5355922812596,778.9375392831862 -758.6416434893617,810.7735417066142" />
<edge from="2009503253" to="2009503278" id="2009503253to2009503278" numLanes="1" shape="-781.5355922812596,778.9375392831862 -779.0215432897676,789.7815492032096 -779.3458704473451,807.5916123655625 -780.4469760841457,821.8287710822187 -782.2380740703084,827.7274201805703 -782.2380740703084,827.7274201805703" />
<edge from="2009503253" to="6436259789" id="2009503253to6436259789" numLanes="1" shape="-781.5355922812596,778.9375392831862 -781.5355922812596,778.9375392831862 -819.1607052651234,726.6005655820481 -867.1248847756069,659.8294347329065" />
<edge from="2009503256" to="565507035" id="2009503256to565507035" numLanes="1" shape="-767.6735910176067,781.5735672549345 -750.9246848267503,805.2156361918896" />
<edge from="2009503256" to="4233527088" id="2009503256to4233527088" numLanes="1" shape="-767.6735910176067,781.5735672549345 -858.1466416108888,653.8176957936957" />
<edge from="2009503256" to="2009503262" id="2009503256to2009503262" numLanes="1" shape="-767.6735910176067,781.5735672549345 -767.6735910176067,781.5735672549345 -759.1048170010326,784.0688650207594 -746.7326636300422,786.8108234028332 -732.4103285826277,787.2823282252066 -720.7644867644412,784.7560932175256" />
<edge from="2009503262" to="565507035" id="2009503262to565507035" numLanes="1" shape="-720.7644867644412,784.7560932175256 -750.9246848267503,805.2156361918896" />
<edge from="2009503262" to="2009503256" id="2009503262to2009503256" numLanes="1" shape="-720.7644867644412,784.7560932175256 -732.4103285826277,787.2823282252066 -746.7326636300422,786.8108234028332 -759.1048170010326,784.0688650207594 -767.6735910176067,781.5735672549345 -767.6735910176067,781.5735672549345" />
<edge from="2009503262" to="9782043718" id="2009503262to9782043718" numLanes="1" shape="-720.7644867644412,784.7560932175256 -720.7644867644412,784.7560932175256 -684.6870337796863,760.2802478079684 -659.1948195014847,742.9841457325965 -603.215870082262,700.7669170182198" />
<edge from="2009503273" to="565507035" id="2009503273to565507035" numLanes="1" shape="-758.6416434893617,810.7735417066142 -750.9246848267503,805.2156361918896" />
<edge from="2009503273" to="2009503253" id="2009503273to2009503253" numLanes="1" shape="-758.6416434893617,810.7735417066142 -781.5355922812596,778.9375392831862" />
<edge from="2009503273" to="565507031" id="2009503273to565507031" numLanes="1" shape="-758.6416434893617,810.7735417066142 -737.6769115948118,832.9735681554303" />
<edge from="2009503273" to="2009503278" id="2009503273to2009503278" numLanes="1" shape="-758.6416434893617,810.7735417066142 -782.2380740703084,827.7274201805703" />
<edge from="2009503278" to="2009503253" id="2009503278to2009503253" numLanes="1" shape="-782.2380740703084,827.7274201805703 -782.2380740703084,827.7274201805703 -780.4469760841457,821.8287710822187 -779.3458704473451,807.5916123655625 -779.0215432897676,789.7815492032096 -781.5355922812596,778.9375392831862" />
<edge from="2009503278" to="2009503273" id="2009503278to2009503273" numLanes="1" shape="-782.2380740703084,827.7274201805703 -758.6416434893617,810.7735417066142" />
<edge from="2009503278" to="6162782540" id="2009503278to6162782540" numLanes="1" shape="-782.2380740703084,827.7274201805703 -816.824773788685,852.6076177414507" />