<edges>
<edge from="301037251" to="301037262" id="301037251to301037262" numLanes="1" shape="155.29895071790088,-66.31286158040166 145.48263989796396,-66.45911755179986 135.80722024908755,-64.67373155942187 116.93204724404495,-59.276047190185636 107.3471846600296,-55.48231999063864 107.3471846600296,-55.48231999063864" />
<edge from="301037251" to="3636291416" id="301037251to3636291416" numLanes="1" shape="155.29895071790088,-66.31286158040166 160.12254390201997,-62.95411834586412 178.78957079502288,-56.96966582117602 178.78957079502288,-56.96966582117602" />
<edge from="301037251" to="5006266347" id="301037251to5006266347" numLanes="1" shape="155.29895071790088,-66.31286158040166 155.29895071790088,-66.31286158040166 163.976314116735,-68.65972538432106 182.20644305075984,-64.47927783569321" />
<edge from="301037252" to="564483463" id="301037252to564483463" numLanes="1" shape="-498.00142301176675,231.76940937014297 -493.53580057248473,230.0659120324999 -491.2048369544791,227.85785823874176 -489.54365452891216,225.33825606387109 -487.96211239055265,220.74402742739767 -488.3192535265116,217.24526931717992 -489.50607406697236,213.07727899355814 -489.50607406697236,213.07727899355814" />
<edge from="301037252" to="4233527012" id="301037252to4233527012" numLanes="1" shape="-498.00142301176675,231.76940937014297 -490.3256849673344,258.5613056952134 -486.7732111316873,270.96535479603335 -486.7732111316873,270.96535479603335" />
<edge from="301037252" to="564483461" id="301037252to564483461" numLanes="1" shape="-498.00142301176675,231.76940937014297 -498.00142301176675,231.76940937014297 -502.44894269446377,231.94330232450739 -506.6924261794193,230.59098122967407 -510.206256712554,227.87724055815488 -512.5852804387687,224.13097515143454" />
<edge from="301037253" to="10049590718" id="301037253to10049590718" numLanes="1" shape="-648.0110963736661,286.4741208218038 -659.0917217375245,261.7156587773934" />
<edge from="301037253" to="4999072803" id="301037253to4999072803" numLanes="1" shape="-648.0110963736661,286.4741208218038 -614.0869549041381,361.9704588879831" />
<edge from="301037253" to="564483461" id="301037253to564483461" numLanes="1" shape="-648.0110963736661,286.4741208218038 -512.5852804387687,224.13097515143454" />
<edge from="301037254" to="4233527085" id="301037254to4233527085" numLanes="1" shape="-559.2606975903036,480.8081330922432 -545.4610457930248,512.112989439629 -529.4507273229538,548.3362360857427 -529.4507273229538,548.3362360857427" />
<edge from="301037254" to="473651125" id="301037254to473651125" numLanes="1" shape="-559.2606975903036,480.8081330922432 -557.3274026523577,479.468653509859 -555.8743076075334,477.62152748182416 -555.0218735613162,475.43085610028356 -554.8324528731173,473.0950593855232 -555.3486242390936,470.80183146568015 -556.5055239276262,468.75191186508164 -556.5055239276262,468.75191186508164" />
<edge from="301037254" to="564483517" id="301037254to564483517" numLanes="1" shape="-559.2606975903036,480.8081330922432 -559.2606975903036,480.8081330922432 -561.486240872182,481.5325280018151 -563.8170914209913,481.5898139658384 -566.077104329248,480.98320222552866 -568.0613832389936,479.74968750495464 -569.6055893062148,478.00313047645614 -570.5753471000353,475.89010499510914" />
<edge from="301037255" to="10049590718" id="301037255to10049590718" numLanes="1" shape="-699.3127339924686,171.80324141541496 -659.0917217375245,261.7156587773934" />
<edge from="301037255" to="4233524684" id="301037255to4233524684" numLanes="1" shape="-699.3127339924686,171.80324141541496 -711.4073247391498,147.88003788795322" />
<edge from="301037255" to="4999014151" id="301037255to4999014151" numLanes="1" shape="-699.3127339924686,171.80324141541496 -603.9607876035152,135.61376381479204 -594.5644603024703,134.6209307438694 -594.5644603024703,134.6209307438694" />
<edge from="301037262" to="301037251" id="301037262to301037251" numLanes="1" shape="107.3471846600296,-55.48231999063864 107.3471846600296,-55.48231999063864 116.93204724404495,-59.276047190185636 135.80722024908755,-64.67373155942187 145.48263989796396,-66.45911755179986 155.29895071790088,-66.31286158040166" />
<edge from="301037262" to="9867267941" id="301037262to9867267941" numLanes="1" shape="107.3471846600296,-55.48231999063864 90.2747501351405,-44.8077033534646" />
<edge from="301037262" to="5253345429" id="301037262to5253345429" numLanes="1" shape="107.3471846600296,-55.48231999063864 93.70155056915246,-82.84946797415614 93.54377428849693,-84.39338063355535 93.75342183455359,-85.68667212687433 94.46642874612007,-87.20357812102884 106.816094011534,-93.3636315963231 106.816094011534,-93.3636315963231" />
<edge from="301037265" to="6095470542" id="301037265to6095470542" numLanes="1" shape="0.12353433936368674,240.09796857601032 -1.907299081562087,238.19831443903968 -3.293999027926475,235.3348184437491 -3.4668833831092343,231.9391802661121 -0.5124786054948345,203.12385009229183 0.5074783096788451,197.66574517823756 2.3784356410615146,190.6378198247403 4.977758668363094,182.8582362108864 46.392054422642104,78.1490410710685 46.392054422642104,78.1490410710685" />
<edge from="301037265" to="5006266354" id="301037265to5006266354" numLanes="1" shape="0.12353433936368674,240.09796857601032 38.131030085263774,254.806063962169 91.38536338275298,275.6689305235632 111.2705141940387,282.46273670438677 113.28400857199449,282.6325952014886 115.41183760261629,282.4386890307069 120.14898157364223,281.41666350653395 411.65785204886924,181.8723161406815 425.42440458235797,175.84941535443068 429.6324340152787,173.25461435783654 432.14157372759655,170.95021296385676 433.51109838089906,169.401001366321 434.6061609865865,167.3367816922255 457.2601828178158,128.25024449964985 485.193338246434,70.32458442030475 485.193338246434,70.32458442030475" />
<edge from="473651125" to="301037254" id="473651125to301037254" numLanes="1" shape="-556.5055239276262,468.75191186508164 -556.5055239276262,468.75191186508164 -555.3486242390936,470.80183146568015 -554.8324528731173,473.0950593855232 -555.0218735613162,475.43085610028356 -555.8743076075334,477.62152748182416 -557.3274026523577,479.468653509859 -559.2606975903036,480.8081330922432" />
<edge from="473651125" to="4999072816" id="473651125to4999072816" numLanes="1" shape="-556.5055239276262,468.75191186508164 -533.4048282457516,461.32384275924414" />
<edge from="473651125" to="564483496" id="473651125to564483496" numLanes="1" shape="-556.5055239276262,468.75191186508164 -558.2472656696336,467.10153053700924 -560.410924609052,466.0421283263713 -562.7826258254936,465.65520990267396 -565.7672259935644,466.13295164098963 -565.7672259935644,466.13295164098963" />
<edge from="564483317" to="4233524655" id="564483317to4233524655" numLanes="1" shape="-779.2655584411696,-3.2781678130850196 -828.0915984268067,20.167666737455875" />
<edge from="564483317" to="4233524647" id="564483317to4233524647" numLanes="1" shape="-779.2655584411696,-3.2781678130850196 -743.7764145546826,-19.527685386128724" />
<edge from="564483317" to="4233524630" id="564483317to4233524630" numLanes="1" shape="-779.2655584411696,-3.2781678130850196 -816.160389065044,-79.19375509489328" />
<edge from="564483317" to="4233524657" id="564483317to4233524657" numLanes="1" shape="-779.2655584411696,-3.2781678130850196 -767.1566471960396,26.864707542583346" />
<edge from="564483459" to="3636985386" id="564483459to3636985386" numLanes="1" shape="-505.22095202631317,207.33617659145966 -507.60525947704446,193.67849004780874" />
<edge from="564483459" to="564483461" id="564483459to564483461" numLanes="1" shape="-505.22095202631317,207.33617659145966 -509.5479880674975,210.02890354720876 -512.4823103076778,214.18826905358583 -513.5516477142228,219.1466069398448 -512.5852804387687,224.13097515143454 -512.5852804387687,224.13097515143454" />
<edge from="564483459" to="564483463" id="564483459to564483463" numLanes="1" shape="-505.22095202631317,207.33617659145966 -505.22095202631317,207.33617659145966 -499.2458700815914,206.60255117248744 -496.7505352407461,207.19128949940205 -493.58634204184636,208.67914411751553 -491.94857593346387,210.1280792313628 -489.50607406697236,213.07727899355814" />
<edge from="564483461" to="301037253" id="564483461to301037253" numLanes="1" shape="-512.5852804387687,224.13097515143454 -648.0110963736661,286.4741208218038" />
<edge from="564483461" to="564483459" id="564483461to564483459" numLanes="1" shape="-512.5852804387687,224.13097515143454 -512.5852804387687,224.13097515143454 -513.5516477142228,219.1466069398448 -512.4823103076778,214.18826905358583 -509.5479880674975,210.02890354720876 -505.22095202631317,207.33617659145966" />
<edge from="564483461" to="301037252" id="564483461to301037252" numLanes="1" shape="-512.5852804387687,224.13097515143454 -510.206256712554,227.87724055815488 -506.6924261794193,230.59098122967407 -502.44894269446377,231.94330232450739 -498.00142301176675,231.76940937014297 -498.00142301176675,231.76940937014297" />
<edge from="564483463" to="301037252" id="564483463to301037252" numLanes="1" shape="-489.50607406697236,213.07727899355814 -489.50607406697236,213.07727899355814 -488.3192535265116,217.24526931717992 -487.96211239055265,220.74402742739767 -489.54365452891216,225.33825606387109 -491.2048369544791,227.85785823874176 -493.53580057248473,230.0659120324999 -498.00142301176675,231.76940937014297" />
<edge from="564483463" to="3055043751" id="564483463to3055043751" numLanes="1" shape="-489.50607406697236,213.07727899355814 -343.81267348793335,147.69700586097315" />
<edge from="564483463" to="564483459" id="564483463to564483459" numLanes="1" shape="-489.50607406697236,213.07727899355814 -491.94857593346387,210.1280792313628 -493.58634204184636,208.67914411751553 -496.7505352407461,207.19128949940205 -499.2458700815914,206.60255117248744 -505.22095202631317,207.33617659145966 -505.22095202631317,207.33617659145966" />
<edge from="564483496" to="473651125" id="564483496to473651125" numLanes="1" shape="-565.7672259935644,466.13295164098963 -565.7672259935644,466.13295164098963 -562.7826258254936,465.65520990267396 -560.410924609052,466.0421283263713 -558.2472656696336,467.10153053700924 -556.5055239276262,468.75191186508164" />
<edge from="564483496" to="4233527053" id="564483496to4233527053" numLanes="1" shape="-565.7672259935644,466.13295164098963 -606.3299633766292,378.94112280523404" />
<edge from="564483496" to="564483517" id="564483496to564483517" numLanes="1" shape="-565.7672259935644,466.13295164098963 -567.4190423527034,467.0673638153821 -569.2319910021033,468.7859797212295 -570.4269276960986,470.9704082068056 -570.8925716164522,473.42312086280435 -570.5753471000353,475.89010499510914 -570.5753471000353,475.89010499510914" />
<edge from="564483517" to="564483496" id="564483517to564483496" numLanes="1" shape="-570.5753471000353,475.89010499510914 -570.5753471000353,475.89010499510914 -570.8925716164522,473.42312086280435 -570.4269276960986,470.9704082068056 -569.2319910021033,468.7859797212295 -567.4190423527034,467.0673638153821 -565.7672259935644,466.13295164098963" />
<edge from="564483517" to="4233527074" id="564483517to4233527074" numLanes="1" shape="-570.5753471000353,475.89010499510914 -590.5749382573413,490.4146915511228" />
<edge from="564483517" to="301037254" id="564483517to301037254" numLanes="1" shape="-570.5753471000353,475.89010499510914 -569.6055893062148,478.00313047645614 -568.0613832389936,479.74968750495464 -566.077104329248,480.98320222552866 -563.8170914209913,481.5898139658384 -561.486240872182,481.5325280018151 -559.2606975903036,480.8081330922432 -559.2606975903036,480.8081330922432" />
<edge from="2102480543" to="4233524597" id="2102480543to4233524597" numLanes="1" shape="758.8788750168169,-450.129857447464 735.0004253506195,-508.29548306623474" />
<edge from="2102480543" to="4233654430" id="2102480543to4233654430" numLanes="1" shape="758.8788750168169,-450.129857447464 695.492096271133,-423.0766617502086" />
<edge from="2102480543" to="9186411596" id="2102480543to9186411596" numLanes="1" shape="758.8788750168169,-450.129857447464 772.2315740737831,-419.11974888900295 791.9510206656996,-366.4072801377624 791.9510206656996,-366.4072801377624" />
<edge from="2102480543" to="4233524600" id="2102480543to4233524600" numLanes="1" shape="758.8788750168169,-450.129857447464 780.3399620995624,-458.74970124894753 784.3648779148934,-459.88432693248615 789.1242654317757,-459.9633431979455 793.8741306253942,-458.98930705944076 831.4004190519918,-447.3142252773978 831.4004190519918,-447.3142252773978" />
<edge from="2102480576" to="4233654441" id="2102480576to4233654441" numLanes="1" shape="481.5682919876417,-337.88249860098585 458.65135946066584,-398.358048254624" />
<edge from="2102480576" to="4233654471" id="2102480576to4233654471" numLanes="1" shape="481.5682919876417,-337.88249860098585 538.3822395564057,-361.0438454821706" />
<edge from="2102480576" to="4233654506" id="2102480576to4233654506" numLanes="1" shape="481.5682919876417,-337.88249860098585 485.43207348149735,-326.4812741628848 487.4158511138521,-322.01031895680353 489.76062813564204,-318.541628589388 492.34312310488895,-315.2237956793979 494.837697109906,-312.45081378659233 497.37279386480805,-310.28684987546876 505.5926764426986,-305.2803831472993 505.5926764426986,-305.2803831472993" />
<edge from="2102480576" to="4233654485" id="2102480576to4233654485" numLanes="1" shape="481.5682919876417,-337.88249860098585 472.8221909623826,-335.0049531846307 466.5064830868505,-333.86783077707514 461.59447497921064,-333.4699727972038 457.3760067624971,-334.0572029412724 444.4960461887531,-339.0602701092139 444.4960461887531,-339.0602701092139" />
<edge from="2102480797" to="4233524615" id="2102480797to4233524615" numLanes="1" shape="614.2772505482426,-241.58135431306437 626.8028281563893,-214.04558132588863" />
<edge from="2102480797" to="4233524611" id="2102480797to4233524611" numLanes="1" shape="614.2772505482426,-241.58135431306437 611.512555846828,-244.56996025703847 609.5806397437118,-245.99118473334238 607.1300376957515,-247.42191386641935 573.8747496042633,-262.9537940151058 573.8747496042633,-262.9537940151058" />
<edge from="2102480797" to="4233654563" id="2102480797to4233654563" numLanes="1" shape="614.2772505482426,-241.58135431306437 619.7480403539957,-242.55649372376502 623.4559109706897,-242.42202228074893 627.0486517335521,-241.3473010980524 650.5136938996147,-225.26299515366554 650.5136938996147,-225.26299515366554" />
<edge from="2102480799" to="2102480801" id="2102480799to2102480801" numLanes="1" shape="918.2969501646003,-193.94346759142354 927.6010791636072,-169.61502403765917" />
<edge from="2102480799" to="4233654507" id="2102480799to4233654507" numLanes="1" shape="918.2969501646003,-193.94346759142354 878.6245664937887,-291.88977826433256" />
<edge from="2102480799" to="2102480800" id="2102480799to2102480800" numLanes="1" shape="918.2969501646003,-193.94346759142354 868.694946368807,-173.82239892473444" />
<edge from="2102480800" to="2102480799" id="2102480800to2102480799" numLanes="1" shape="868.694946368807,-173.82239892473444 918.2969501646003,-193.94346759142354" />
<edge from="2102480800" to="4233654565" id="2102480800to4233654565" numLanes="1" shape="868.694946368807,-173.82239892473444 854.3558752358658,-216.136914962437" />
<edge from="2102480800" to="4233524618" id="2102480800to4233524618" numLanes="1" shape="868.694946368807,-173.82239892473444 881.2147019308759,-147.6057095634751" />
<edge from="2102480800" to="2102480803" id="2102480800to2102480803" numLanes="1" shape="868.694946368807,-173.82239892473444 752.0522042948287,-128.03468027384952 673.4352773313876,-93.55561129748821 673.4352773313876,-93.55561129748821" />
<edge from="2102480801" to="2102480799" id="2102480801to2102480799" numLanes="1" shape="927.6010791636072,-169.61502403765917 918.2969501646003,-193.94346759142354" />
<edge from="2102480801" to="4233524618" id="2102480801to4233524618" numLanes="1" shape="927.6010791636072,-169.61502403765917 881.2147019308759,-147.6057095634751" />
<edge from="2102480803" to="2102480800" id="2102480803to2102480800" numLanes="1" shape="673.4352773313876,-93.55561129748821 673.4352773313876,-93.55561129748821 752.0522042948287,-128.03468027384952 868.694946368807,-173.82239892473444" />
<edge from="2102480803" to="4233524619" id="2102480803to4233524619" numLanes="1" shape="673.4352773313876,-93.55561129748821 646.0564030959504,-164.21332725556567" />
<edge from="2102480803" to="4233524625" id="2102480803to4233524625" numLanes="1" shape="673.4352773313876,-93.55561129748821 660.4682830852689,-87.91742805484682" />
<edge from="2102480803" to="2102480808" id="2102480803to2102480808" numLanes="1" shape="673.4352773313876,-93.55561129748821 720.053673447459,31.38010365376249" />
<edge from="2102480805" to="9186411589" id="2102480805to9186411589" numLanes="1" shape="926.3697590600932,-18.782308926805854 927.0625343297143,-23.991381106432527 925.7004699404351,-31.921124062966555 891.1616392955184,-124.69567179260775 891.1616392955184,-124.69567179260775" />
<edge from="2102480805" to="4233524646" id="2102480805to4233524646" numLanes="1" shape="926.3697590600932,-18.782308926805854 922.3379437209805,-15.131211298983544 913.8421140850987,-12.016591462306678 873.5974069399526,-4.573224012739956 832.1562935531838,5.121078904252499 806.7115875633899,11.073431000579149 794.6238312574569,14.14441670756787 794.6238312574569,14.14441670756787" />
<edge from="2102480805" to="10049605857" id="2102480805to10049605857" numLanes="1" shape="926.3697590600932,-18.782308926805854 962.6585751519306,-27.772638767492026 966.4957396128448,-30.41841649496928 968.7658883820986,-32.49428319837898 980.8891994326841,-47.09450953034684 982.9246844238369,-49.18576855538413 984.6191112288507,-50.296581151429564 987.2585438513197,-51.15722566656768 990.8674778568093,-50.96901642763987 1043.0025296828244,-32.05144057888538 1043.0025296828244,-32.05144057888538" />
<edge from="2102480808" to="2102480803" id="2102480808to2102480803" numLanes="1" shape="720.053673447459,31.38010365376249 673.4352773313876,-93.55561129748821" />
<edge from="2102480808" to="4233524646" id="2102480808to4233524646" numLanes="1" shape="720.053673447459,31.38010365376249 732.0651287450455,28.196779140271246 794.6238312574569,14.14441670756787 794.6238312574569,14.14441670756787" />
<edge from="2800415501" to="5548736268" id="2800415501to5548736268" numLanes="1" shape="447.7953361264663,-2.799968497361988 417.8459572553402,10.73152908263728" />
<edge from="2800415501" to="4233524625" id="2800415501to4233524625" numLanes="1" shape="447.7953361264663,-2.799968497361988 455.5571508144494,-7.003754033241421 505.0400322925998,-26.585398206487298 567.8723456746666,-53.438944248948246 594.7080119305756,-63.712260640226305 611.4338508836227,-70.40136898914352 660.4682830852689,-87.91742805484682 660.4682830852689,-87.91742805484682" />
<edge from="2800415501" to="5548736265" id="2800415501to5548736265" numLanes="1" shape="447.7953361264663,-2.799968497361988 430.07760100462474,20.64516032068059" />
<edge from="2800415517" to="2800415522" id="2800415517to2800415522" numLanes="1" shape="402.1512858228525,32.761399287730455 405.22920990304556,36.82000297727063 409.48484245687723,39.647390621714294 414.434755890863,40.913201306480914 419.53335632628296,40.47440657578409 419.53335632628296,40.47440657578409" />
<edge from="2800415517" to="5548736271" id="2800415517to5548736271" numLanes="1" shape="402.1512858228525,32.761399287730455 402.1512858228525,32.761399287730455 400.68277327460237,28.488359668292105 400.5402775447583,23.973521472420543 401.7458538200008,19.61640444584191" />
<edge from="2800415517" to="9186468977" id="2800415517to9186468977" numLanes="1" shape="402.1512858228525,32.761399287730455 396.6914208359085,31.00953539693728" />
<edge from="2800415522" to="2800415517" id="2800415522to2800415517" numLanes="1" shape="419.53335632628296,40.47440657578409 419.53335632628296,40.47440657578409 414.434755890863,40.913201306480914 409.48484245687723,39.647390621714294 405.22920990304556,36.82000297727063 402.1512858228525,32.761399287730455" />
<edge from="2800415522" to="5006266354" id="2800415522to5006266354" numLanes="1" shape="419.53335632628296,40.47440657578409 485.193338246434,70.32458442030475" />
<edge from="2800415522" to="5548736264" id="2800415522to5548736264" numLanes="1" shape="419.53335632628296,40.47440657578409 423.32071020116564,38.93620677199215 426.5672951390734,36.45683461939916 429.0252074310556,33.20913502154872 429.0252074310556,33.20913502154872" />
<edge from="3055043750" to="9865522290" id="3055043750to9865522290" numLanes="1" shape="-330.4991330978228,180.42340324958786 -228.8663112478098,202.43373975297436 -189.98902926861774,211.87976166978478 -187.50956326932646,212.80087273288518 -185.5927620365983,213.97778605297208 -184.5001472927397,215.79375383164734 -184.6423887311248,219.29449574509636 -186.76896704302635,240.8632844137028 -189.9059791447362,265.2295976174064 -189.9059791447362,265.2295976174064" />
<edge from="3055043750" to="3055043751" id="3055043750to3055043751" numLanes="1" shape="-330.4991330978228,180.42340324958786 -340.47744667553343,155.90644419379532 -343.81267348793335,147.69700586097315 -343.81267348793335,147.69700586097315" />
<edge from="3055043750" to="4233527014" id="3055043750to4233527014" numLanes="1" shape="-330.4991330978228,180.42340324958786 -318.17036691331305,209.17396865133196 -317.5584639812587,211.04766869498417 -317.1979345845757,214.35802723327652 -317.1664916652953,217.46282299701124 -317.70976717572194,222.02054933086038 -323.2777559820097,257.3070672112517 -326.19861436693463,273.06312293279916 -333.17370257910807,302.84723092475906 -333.17370257910807,302.84723092475906" />
<edge from="3055043751" to="564483463" id="3055043751to564483463" numLanes="1" shape="-343.81267348793335,147.69700586097315 -489.50607406697236,213.07727899355814" />
<edge from="3055043751" to="3055043750" id="3055043751to3055043750" numLanes="1" shape="-343.81267348793335,147.69700586097315 -343.81267348793335,147.69700586097315 -340.47744667553343,155.90644419379532 -330.4991330978228,180.42340324958786" />
<edge from="3055043751" to="9835121155" id="3055043751to9835121155" numLanes="1" shape="-343.81267348793335,147.69700586097315 -278.44588659435976,118.03617143025622" />
<edge from="3055043751" to="10049766940" id="3055043751to10049766940" numLanes="1" shape="-343.81267348793335,147.69700586097315 -348.13019638194237,138.06165960617363 -362.3617638826836,106.28306823130697 -366.7545764769893,96.48006066307425 -369.7258526039077,88.70964684057981 -379.8705015698215,69.54448206257075 -381.84683124371804,67.33547367434949 -387.41858348075766,63.66397657105699 -408.3611649951199,45.576813040301204 -415.8912958848523,36.02702547190711 -419.03787140443455,31.424169114325196 -419.03787140443455,31.424169114325196" />
<edge from="3055043752" to="3178456078" id="3055043752to3178456078" numLanes="1" shape="-460.7101325583644,360.9197797877714 -333.7602641438134,363.95644319523126" />
<edge from="3055043752" to="4999072803" id="3055043752to4999072803" numLanes="1" shape="-460.7101325583644,360.9197797877714 -614.0869549041381,361.9704588879831" />
<edge from="3055043752" to="4999072808" id="3055043752to4999072808" numLanes="1" shape="-460.7101325583644,360.9197797877714 -445.1462630367605,415.7159697795287 -444.464677007054,418.5998055925593 -445.0880533977179,421.64830931974575 -446.3852050214773,423.53152734506875 -450.2204606817104,426.1001600851305 -450.2204606817104,426.1001600851305" />
<edge from="3055043752" to="6758737653" id="3055043752to6758737653" numLanes="1" shape="-460.7101325583644,360.9197797877714 -467.1149206763366,339.5944986883551 -468.2284824672388,335.7050023856573 -468.2284824672388,335.7050023856573" />
<edge from="3178456078" to="3055043752" id="3178456078to3055043752" numLanes="1" shape="-333.7602641438134,363.95644319523126 -460.7101325583644,360.9197797877714" />
<edge from="3178456078" to="4233527016" id="3178456078to4233527016" numLanes="1" shape="-333.7602641438134,363.95644319523126 -334.4042440393241,312.88023704942316" />
<edge from="3178456078" to="4233527043" id="3178456078to4233527043" numLanes="1" shape="-333.7602641438134,363.95644319523126 -304.9994537157472,365.0245782183483" />
<edge from="3178456078" to="9835228889" id="3178456078to9835228889" numLanes="1" shape="-333.7602641438134,363.95644319523126 -334.3043414565036,403.42557048937306 -336.1426333283307,409.21243993751705 -337.6713994056918,412.5215802411549 -341.9496487840079,416.83376383408904 -341.9496487840079,416.83376383408904" />
<edge from="3635907904" to="4233524660" id="3635907904to4233524660" numLanes="1" shape="-754.4480935749598,50.95422203093767 -718.8764734701253,39.30717730848119" />
<edge from="3635907904" to="4233524657" id="3635907904to4233524657" numLanes="1" shape="-754.4480935749598,50.95422203093767 -767.1566471960396,26.864707542583346" />
<edge from="3635907904" to="3636985377" id="3635907904to3636985377" numLanes="1" shape="-754.4480935749598,50.95422203093767 -736.0142115717754,95.54713949980214" />
<edge from="3635907910" to="4233524655" id="3635907910to4233524655" numLanes="1" shape="-893.8135042008944,50.57890353631228 -828.0915984268067,20.167666737455875" />
<edge from="3635907910" to="9835190696" id="3635907910to9835190696" numLanes="1" shape="-893.8135042008944,50.57890353631228 -895.7152837527683,46.42012930335477" />
<edge from="3635907910" to="9835190697" id="3635907910to9835190697" numLanes="1" shape="-893.8135042008944,50.57890353631228 -892.2882478196407,53.910427576862276" />
<edge from="3635907914" to="9835164854" id="3635907914to9835164854" numLanes="1" shape="-593.992768239812,-15.457464010920376 -622.9682899258332,-2.1052161622792482" />
<edge from="3635907914" to="4233524645" id="3635907914to4233524645" numLanes="1" shape="-593.992768239812,-15.457464010920376 -542.6409781810362,-38.86741966288537 -527.1475465524709,-44.050623800605536 -503.5851409600582,-49.36386110493913 -493.45346754812635,-50.409737749025226 -488.4243211528519,-50.262609200552106 -481.90699407167267,-48.51406192034483 -474.281538254465,-45.25971510307863 -466.2053721526172,-39.87962435884401 -455.39477585745044,-31.98846114706248 -447.6250334860524,-26.447646690066904 -441.87317455897573,-21.376000673510134 -438.54897312889807,-17.92290853476152 -435.8122699628584,-13.92620530584827 -435.8122699628584,-13.92620530584827" />
<edge from="3635907914" to="9835164855" id="3635907914to9835164855" numLanes="1" shape="-593.992768239812,-15.457464010920376 -616.8726995390607,-70.15382132958621 -619.1133270504652,-72.36759997019544 -621.4344835469965,-73.3855057139881 -623.9827610043576,-73.22129617072642 -650.6169092546916,-61.57797238836065 -650.6169092546916,-61.57797238836065" />
<edge from="3635907923" to="4233524639" id="3635907923to4233524639" numLanes="1" shape="-925.1547433712985,-30.36826172284782 -881.1810885446612,-50.76534368749708" />
<edge from="3635907923" to="9835170474" id="3635907923to9835170474" numLanes="1" shape="-925.1547433712985,-30.36826172284782 -915.4070883105742,-4.935937201604247" />
<edge from="3635907923" to="9835170475" id="3635907923to9835170475" numLanes="1" shape="-925.1547433712985,-30.36826172284782 -931.9895732243313,-47.488164528273046 -946.4824097881792,-77.9181021139957 -962.223231173004,-108.09355703974143 -962.223231173004,-108.09355703974143" />
<edge from="3635907929" to="9835190693" id="3635907929to9835190693" numLanes="1" shape="-860.3202769780764,-177.1260834732093 -857.5065041024936,-170.8997126352042" />
<edge from="3635907929" to="9835190659" id="3635907929to9835190659" numLanes="1" shape="-860.3202769780764,-177.1260834732093 -864.5730697775725,-185.50724403187633 -866.3883102250984,-187.9682161086239 -868.912198482547,-189.14496940327808 -872.5925923035247,-189.71084180753678 -875.4027960285312,-189.1411439953372 -885.3806366883218,-184.17861237796023 -907.0187093991553,-171.10232668789104 -907.0187093991553,-171.10232668789104" />
<edge from="3635907929" to="3635907930" id="3635907929to3635907930" numLanes="1" shape="-860.3202769780764,-177.1260834732093 -860.3202769780764,-177.1260834732093 -790.694399688975,-220.79208529181778 -786.176703787758,-220.51027786219493" />
<edge from="3635907930" to="3635907929" id="3635907930to3635907929" numLanes="1" shape="-786.176703787758,-220.51027786219493 -790.694399688975,-220.79208529181778 -860.3202769780764,-177.1260834732093 -860.3202769780764,-177.1260834732093" />
<edge from="3635907930" to="10030780660" id="3635907930to10030780660" numLanes="1" shape="-786.176703787758,-220.51027786219493 -779.922773684375,-224.72013464244083 -774.5211670014542,-228.35792451864108 -761.1905168842059,-237.33913830621168 -761.1905168842059,-237.33913830621168" />
<edge from="3635907930" to="9835190693" id="3635907930to9835190693" numLanes="1" shape="-786.176703787758,-220.51027786219493 -786.176703787758,-220.51027786219493 -788.1564853901509,-214.47094030445442 -800.1159831783734,-206.59555617393926 -857.5065041024936,-170.8997126352042" />
<edge from="3635907938" to="4233654570" id="3635907938to4233654570" numLanes="1" shape="-753.203298074659,-267.3821475878358 -727.4819562005578,-287.4791549979709 -722.4488681269577,-289.6934809461236 -716.5622482200852,-289.3201996162534 -710.8857932017418,-287.6203666557558 -680.3036731784232,-270.36712149810046 -665.3278101764154,-263.78611908014864 -660.6437487278599,-261.3504580487497 -656.5358903781744,-257.9164228159934 -653.411667885608,-250.46482901275158 -652.7914507915266,-244.74399586440995 -654.9873550321208,-234.9059518026188 -654.9873550321208,-234.9059518026188" />