<edges>
<edge from="5414306406" to="8080225478" id="5414306406to8080225478" numLanes="1" shape="1031.2029613946215,-226.29080541152507 1029.9585299287573,-100.0262690661475" />
<edge from="5414306406" to="5871442378" id="5414306406to5871442378" numLanes="1" shape="1031.2029613946215,-226.29080541152507 1031.9806293234578,-279.7277332879603 1032.3807658292353,-334.63385466951877 1031.305392338254,-435.7972595416941 1030.1519659808837,-509.94026548648253 1029.360644508677,-596.406093491707 1029.360644508677,-596.406093491707" />
<edge from="5414306406" to="8096944325" id="5414306406to8096944325" numLanes="1" shape="1031.2029613946215,-226.29080541152507 960.2191282462445,-224.15494513930753 948.727218723332,-224.58385230740532 930.8610571139143,-229.96533355256543 922.4176666507847,-233.517819639761 909.4414596989518,-237.87551735853776 909.4414596989518,-237.87551735853776" />
<edge from="5414306521" to="5871444998" id="5414306521to5871444998" numLanes="1" shape="427.38538268051343,152.76508463313803 374.5857013874338,159.36311739915982" />
<edge from="5414306521" to="5871444989" id="5414306521to5871444989" numLanes="1" shape="427.38538268051343,152.76508463313803 465.5869914838695,145.51989922346547 630.0075870068977,144.1093091215007 815.4857220921549,144.58048336207867 815.4857220921549,144.58048336207867" />
<edge from="5414306521" to="8080225476" id="5414306521to8080225476" numLanes="1" shape="427.38538268051343,152.76508463313803 407.83584966271883,165.6506550712511" />
<edge from="5414306522" to="8080225476" id="5414306522to8080225476" numLanes="1" shape="384.4254681696766,179.39725764049217 407.83584966271883,165.6506550712511" />
<edge from="5414306522" to="5871444998" id="5414306522to5871444998" numLanes="1" shape="384.4254681696766,179.39725764049217 383.997066270269,171.56370150158182 380.533019163704,164.51815163949504 374.5857013874338,159.36311739915982 374.5857013874338,159.36311739915982" />
<edge from="5414306522" to="7746660931" id="5414306522to7746660931" numLanes="1" shape="384.4254681696766,179.39725764049217 381.51874954393134,187.16888432623819" />
<edge from="5414306523" to="7746660931" id="5414306523to7746660931" numLanes="1" shape="385.01111204578774,217.40413071447983 382.7765482868417,199.37921300297603 381.51874954393134,187.16888432623819 381.51874954393134,187.16888432623819" />
<edge from="5414306523" to="5871444994" id="5414306523to5871444994" numLanes="1" shape="385.01111204578774,217.40413071447983 385.01111204578774,217.40413071447983 365.6785822233651,199.84778909105808 359.45629465195816,195.60262815561146" />
<edge from="5434699621" to="5871442360" id="5434699621to5871442360" numLanes="1" shape="63.733342899533454,152.87040613405406 58.870762105390895,114.76488898135722" />
<edge from="5434699621" to="5871445019" id="5434699621to5871445019" numLanes="1" shape="63.733342899533454,152.87040613405406 93.15103854326298,185.76513455668464 108.21157155837864,199.79108455823734 127.75434826337732,212.23151188902557 146.61646579689113,219.2977780904621 163.21831717930036,224.7660349747166 178.9516323179123,227.50716220075265 207.4344908942585,228.49708111351356 229.0196603743825,227.0626740185544 254.68470218084985,222.08676308114082 299.78504812991014,204.33677055174485 299.78504812991014,204.33677055174485" />
<edge from="5434699621" to="5871442354" id="5434699621to5871442354" numLanes="1" shape="63.733342899533454,152.87040613405406 33.59243512555258,123.66754886321723" />
<edge from="5871442320" to="8077954989" id="5871442320to8077954989" numLanes="1" shape="-704.550683836278,696.0247761183418 -714.453955030709,695.5067366901785 -724.0158011990716,691.9529861384071 -729.1069156880258,686.7028714716434 -757.4645066341036,619.3977680755779 -761.851146549976,614.6622439301573 -767.5655495682731,611.1993023827672 -777.1116801577155,609.6047046855092 -933.6881452959497,629.263124584686 -933.6881452959497,629.263124584686" />
<edge from="5871442320" to="5871442321" id="5871442320to5871442321" numLanes="1" shape="-704.550683836278,696.0247761183418 -570.7167804685305,678.1562596941367" />
<edge from="5871442321" to="5871442320" id="5871442321to5871442320" numLanes="1" shape="-570.7167804685305,678.1562596941367 -704.550683836278,696.0247761183418" />
<edge from="5871442321" to="5871445023" id="5871442321to5871445023" numLanes="1" shape="-570.7167804685305,678.1562596941367 -570.959592701518,529.6314004738815" />
<edge from="5871442321" to="5871445020" id="5871442321to5871445020" numLanes="1" shape="-570.7167804685305,678.1562596941367 -570.7167804685305,678.1562596941367 -534.1464334570919,674.9178715893067 -508.86485353839817,670.4530381811783 -488.09569239156554,663.7995856846683 -318.70085103076417,576.7747251386754 -300.8855792559334,570.643328324426 -286.56144295661943,568.4473899155855 -235.63929934997577,570.3413160149939 -214.1180694803479,568.8072172030807 -189.835766950564,562.2366590374149 -162.26016055169748,551.8208625540137 -136.42539086431498,534.179805456195 -115.46137166715926,515.2827220940962 -97.54265436780406,493.34389710752293 -78.03420625725994,461.06479738792405 -69.51745781459613,441.16057360358536 -52.90791348455241,374.51273783296347 -51.39749168237904,362.1031417348422 -48.425977664010134,337.6496293582022" />
<edge from="5871442326" to="5871445370" id="5871442326to5871445370" numLanes="1" shape="-843.8168822785374,398.92988064698875 -937.2298457447323,437.5614297655411 -943.1397436174448,443.57538144197315 -946.111222821346,451.01572030363604 -945.5686676074401,483.3113775351085 -944.415796407091,544.6367238881066 -944.415796407091,544.6367238881066" />
<edge from="5871442326" to="8077954983" id="5871442326to8077954983" numLanes="1" shape="-843.8168822785374,398.92988064698875 -803.1892973409849,429.5411968966946 -794.4026557934121,432.8687016572803 -781.310767893272,434.7114802971482 -638.6839132716414,433.70769926765934 -617.4167870464735,435.6508898497559 -605.2733066974324,439.1507400632836 -594.722621838504,444.7665565479547 -594.722621838504,444.7665565479547" />
<edge from="5871442326" to="5871442338" id="5871442326to5871442338" numLanes="1" shape="-843.8168822785374,398.92988064698875 -822.4615539772785,384.55606988305226 -807.361465247348,372.2583234491758 -792.08803732862,355.5204357285984 -781.9052564460435,341.3916059732437 -771.3642218792229,323.71774707501754 -761.5811395697528,294.99184047291055 -757.276452574064,272.6527022700757 -757.2951961585204,244.3488439801149 -763.0318765486008,217.35290054418147 -770.3627635989687,191.00073649082333 -782.2310551042319,168.47077458258718 -795.600736046501,150.32525028241798 -803.815332493512,140.16341939754784 -809.8370186373941,131.01337398355827 -815.248271957098,118.48230136372149 -818.2066261218279,106.79487958317623 -819.767781563045,85.57667385134846 -818.6918602673686,63.40742078749463 -808.8671458900208,13.87102227518335 -794.8457532204338,-48.063469695392996 -792.9912967137643,-60.53127358201891 -793.1595584113384,-67.14931456558406 -799.348590173584,-86.692019617185 -799.348590173584,-86.692019617185" />
<edge from="5871442338" to="5871442326" id="5871442338to5871442326" numLanes="1" shape="-799.348590173584,-86.692019617185 -799.348590173584,-86.692019617185 -793.1595584113384,-67.14931456558406 -792.9912967137643,-60.53127358201891 -794.8457532204338,-48.063469695392996 -808.8671458900208,13.87102227518335 -818.6918602673686,63.40742078749463 -819.767781563045,85.57667385134846 -818.2066261218279,106.79487958317623 -815.248271957098,118.48230136372149 -809.8370186373941,131.01337398355827 -803.815332493512,140.16341939754784 -795.600736046501,150.32525028241798 -782.2310551042319,168.47077458258718 -770.3627635989687,191.00073649082333 -763.0318765486008,217.35290054418147 -757.2951961585204,244.3488439801149 -757.276452574064,272.6527022700757 -761.5811395697528,294.99184047291055 -771.3642218792229,323.71774707501754 -781.9052564460435,341.3916059732437 -792.08803732862,355.5204357285984 -807.361465247348,372.2583234491758 -822.4615539772785,384.55606988305226 -843.8168822785374,398.92988064698875" />
<edge from="5871442338" to="8077954882" id="5871442338to8077954882" numLanes="1" shape="-799.348590173584,-86.692019617185 -612.9683836675831,-92.79614348523319" />
<edge from="5871442338" to="8080003643" id="5871442338to8080003643" numLanes="1" shape="-799.348590173584,-86.692019617185 -813.5673602477764,-110.2989012002945 -818.311170034518,-120.42225748999044 -820.4802911740844,-128.86168102547526 -821.939100886404,-233.4540934683755 -820.0543037182069,-239.55733927665278 -814.9629257013439,-245.99633658723906 -782.2596060576616,-259.7640199935995 -782.2596060576616,-259.7640199935995" />
<edge from="5871442340" to="5871442343" id="5871442340to5871442343" numLanes="1" shape="-559.7467255988158,-108.10093748802319 -554.4500819151872,-104.61242163833231 -517.7915638297563,-71.0573121374473 -501.27043615217553,-60.08761203242466 -482.509362073848,-53.962063858285546 -453.01319600926945,-47.92270314646885 -371.9487998148543,-35.257212901022285 -371.9487998148543,-35.257212901022285" />
<edge from="5871442340" to="8077954882" id="5871442340to8077954882" numLanes="1" shape="-559.7467255988158,-108.10093748802319 -567.9432370801806,-108.21217603189871 -601.5541176024126,-94.2272750204429 -606.1786181679345,-93.42632487090304 -612.9683836675831,-92.79614348523319 -612.9683836675831,-92.79614348523319" />
<edge from="5871442340" to="8077954872" id="5871442340to8077954872" numLanes="1" shape="-559.7467255988158,-108.10093748802319 -645.4125639943522,-206.7363899257034 -700.6544559532194,-259.3136791139841 -710.3629013690515,-265.43434832943603 -715.6140388576896,-269.75337894260883 -722.6977367117652,-278.3635914796032 -745.462814181752,-313.0595458894968 -756.4864778755582,-324.1286199600436 -768.6016452367767,-331.83493115147576 -768.6016452367767,-331.83493115147576" />
<edge from="5871442343" to="5871442340" id="5871442343to5871442340" numLanes="1" shape="-371.9487998148543,-35.257212901022285 -371.9487998148543,-35.257212901022285 -453.01319600926945,-47.92270314646885 -482.509362073848,-53.962063858285546 -501.27043615217553,-60.08761203242466 -517.7915638297563,-71.0573121374473 -554.4500819151872,-104.61242163833231 -559.7467255988158,-108.10093748802319" />
<edge from="5871442343" to="8077954913" id="5871442343to8077954913" numLanes="1" shape="-371.9487998148543,-35.257212901022285 -374.5177870124462,32.79474300611764" />
<edge from="5871442343" to="5871442347" id="5871442343to5871442347" numLanes="1" shape="-371.9487998148543,-35.257212901022285 -286.0461970565957,-1.941820445470512 -266.32976047560805,2.1063486109487712 -247.25550392997684,4.288993829395622 -175.48007574205985,7.100789572112262 -165.47304812789662,10.086760440375656 -155.23134820809355,14.963688962161541 -144.8665016949526,22.164167599752545 -133.0378799486789,33.315696163102984 -125.61062722967472,43.10777468280867 -117.30827829265036,62.96581309940666 -109.17458019446349,86.56659364467487 -109.17458019446349,86.56659364467487" />
<edge from="5871442347" to="5871442343" id="5871442347to5871442343" numLanes="1" shape="-109.17458019446349,86.56659364467487 -109.17458019446349,86.56659364467487 -117.30827829265036,62.96581309940666 -125.61062722967472,43.10777468280867 -133.0378799486789,33.315696163102984 -144.8665016949526,22.164167599752545 -155.23134820809355,14.963688962161541 -165.47304812789662,10.086760440375656 -175.48007574205985,7.100789572112262 -247.25550392997684,4.288993829395622 -266.32976047560805,2.1063486109487712 -286.0461970565957,-1.941820445470512 -371.9487998148543,-35.257212901022285" />
<edge from="5871442347" to="5871442348" id="5871442347to5871442348" numLanes="1" shape="-109.17458019446349,86.56659364467487 -118.68441717629321,127.36634973715991" />
<edge from="5871442347" to="8077954927" id="5871442347to8077954927" numLanes="1" shape="-109.17458019446349,86.56659364467487 -94.70067841478158,122.59157320903614" />
<edge from="5871442348" to="5871442347" id="5871442348to5871442347" numLanes="1" shape="-118.68441717629321,127.36634973715991 -109.17458019446349,86.56659364467487" />
<edge from="5871442348" to="5871442350" id="5871442348to5871442350" numLanes="1" shape="-118.68441717629321,127.36634973715991 -121.70876750507159,132.1724724797532 -123.22259858431062,137.6306455982849 -123.10402573592728,143.29712424054742 -121.36740513029508,148.6849787053652 -118.14162955345819,153.36354335024953 -113.72265763557516,156.92562970146537 -108.44737119675847,159.07506914483383 -104.24872842768673,159.9269697535783 -104.24872842768673,159.9269697535783" />
<edge from="5871442348" to="8077954927" id="5871442348to8077954927" numLanes="1" shape="-118.68441717629321,127.36634973715991 -118.68441717629321,127.36634973715991 -113.65862159134122,123.16406850423664 -107.53066240303451,120.83472286211327 -100.96747894521104,120.6382478387095 -94.70067841478158,122.59157320903614" />
<edge from="5871442350" to="5871442348" id="5871442350to5871442348" numLanes="1" shape="-104.24872842768673,159.9269697535783 -104.24872842768673,159.9269697535783 -108.44737119675847,159.07506914483383 -113.72265763557516,156.92562970146537 -118.14162955345819,153.36354335024953 -121.36740513029508,148.6849787053652 -123.10402573592728,143.29712424054742 -123.22259858431062,137.6306455982849 -121.70876750507159,132.1724724797532 -118.68441717629321,127.36634973715991" />
<edge from="5871442350" to="8080214634" id="5871442350to8080214634" numLanes="1" shape="-104.24872842768673,159.9269697535783 -80.89583422133,182.1107528419234" />
<edge from="5871442350" to="5871442351" id="5871442350to5871442351" numLanes="1" shape="-104.24872842768673,159.9269697535783 -97.44320570450509,158.66591093828902 -92.58057142456528,156.28029042575508 -88.55354361847276,152.67268380196765 -85.66321247076849,148.1000936483033 -85.66321247076849,148.1000936483033" />
<edge from="5871442351" to="5871442350" id="5871442351to5871442350" numLanes="1" shape="-85.66321247076849,148.1000936483033 -85.66321247076849,148.1000936483033 -88.55354361847276,152.67268380196765 -92.58057142456528,156.28029042575508 -97.44320570450509,158.66591093828902 -104.24872842768673,159.9269697535783" />
<edge from="5871442351" to="8077954963" id="5871442351to8077954963" numLanes="1" shape="-85.66321247076849,148.1000936483033 -84.01889312110143,141.96565842954442" />
<edge from="5871442351" to="8080214634" id="5871442351to8080214634" numLanes="1" shape="-85.66321247076849,148.1000936483033 -80.89583422133,182.1107528419234" />
<edge from="5871442352" to="8077954927" id="5871442352to8077954927" numLanes="1" shape="-90.18054572993424,125.73222590889782 -94.70067841478158,122.59157320903614" />
<edge from="5871442352" to="5871442356" id="5871442352to5871442356" numLanes="1" shape="-90.18054572993424,125.73222590889782 22.289101124333683,98.45384212816134" />
<edge from="5871442352" to="8077954963" id="5871442352to8077954963" numLanes="1" shape="-90.18054572993424,125.73222590889782 -90.18054572993424,125.73222590889782 -86.47377096716082,130.42908167652786 -84.35935468930984,136.00208936585113 -84.01889312110143,141.96565842954442" />
<edge from="5871442354" to="5434699621" id="5871442354to5434699621" numLanes="1" shape="33.59243512555258,123.66754886321723 63.733342899533454,152.87040613405406" />
<edge from="5871442354" to="5871442360" id="5871442354to5871442360" numLanes="1" shape="33.59243512555258,123.66754886321723 40.73361619451316,125.16008773911744 47.93733841716312,124.01766203530133 54.26400814176304,120.39168969495222 58.870762105390895,114.76488898135722 58.870762105390895,114.76488898135722" />
<edge from="5871442354" to="8077954953" id="5871442354to8077954953" numLanes="1" shape="33.59243512555258,123.66754886321723 33.59243512555258,123.66754886321723 28.77194245479768,120.87241414980963 24.913899387058336,116.8630362469703" />
<edge from="5871442356" to="5871442352" id="5871442356to5871442352" numLanes="1" shape="22.289101124333683,98.45384212816134 -90.18054572993424,125.73222590889782" />
<edge from="5871442356" to="8077954953" id="5871442356to8077954953" numLanes="1" shape="22.289101124333683,98.45384212816134 21.11653167399345,104.76159563055262 22.02459515252849,111.1191122578457 24.913899387058336,116.8630362469703 24.913899387058336,116.8630362469703" />
<edge from="5871442356" to="5871442358" id="5871442356to5871442358" numLanes="1" shape="22.289101124333683,98.45384212816134 22.289101124333683,98.45384212816134 25.06998188974103,93.26227456331253 29.259951900457963,89.11100377095863" />
<edge from="5871442358" to="5871442356" id="5871442358to5871442356" numLanes="1" shape="29.259951900457963,89.11100377095863 25.06998188974103,93.26227456331253 22.289101124333683,98.45384212816134 22.289101124333683,98.45384212816134" />
<edge from="5871442358" to="5871442359" id="5871442358to5871442359" numLanes="1" shape="29.259951900457963,89.11100377095863 29.259951900457963,89.11100377095863 38.12630284699844,85.42042502947152 47.6977709744242,86.24043778749183" />
<edge from="5871442358" to="8077954961" id="5871442358to8077954961" numLanes="1" shape="29.259951900457963,89.11100377095863 23.403304030012805,16.931415179744363" />
<edge from="5871442359" to="8077954961" id="5871442359to8077954961" numLanes="1" shape="47.6977709744242,86.24043778749183 23.403304030012805,16.931415179744363" />
<edge from="5871442359" to="5871442358" id="5871442359to5871442358" numLanes="1" shape="47.6977709744242,86.24043778749183 38.12630284699844,85.42042502947152 29.259951900457963,89.11100377095863 29.259951900457963,89.11100377095863" />
<edge from="5871442359" to="5871445014" id="5871442359to5871445014" numLanes="1" shape="47.6977709744242,86.24043778749183 47.6977709744242,86.24043778749183 54.62919689057162,90.25843661371619 59.426211352518294,96.65125269303098" />
<edge from="5871442360" to="5434699621" id="5871442360to5434699621" numLanes="1" shape="58.870762105390895,114.76488898135722 63.733342899533454,152.87040613405406" />
<edge from="5871442360" to="5871442354" id="5871442360to5871442354" numLanes="1" shape="58.870762105390895,114.76488898135722 58.870762105390895,114.76488898135722 54.26400814176304,120.39168969495222 47.93733841716312,124.01766203530133 40.73361619451316,125.16008773911744 33.59243512555258,123.66754886321723" />
<edge from="5871442360" to="5871445014" id="5871442360to5871445014" numLanes="1" shape="58.870762105390895,114.76488898135722 60.98763547564158,108.89235085761175 61.17810128448764,102.64780477946624 59.426211352518294,96.65125269303098 59.426211352518294,96.65125269303098" />
<edge from="5871442377" to="5871442380" id="5871442377to5871442380" numLanes="1" shape="584.1476791921887,-591.845841796603 650.4198550703586,-596.4251029682346" />
<edge from="5871442377" to="8080225509" id="5871442377to8080225509" numLanes="1" shape="584.1476791921887,-591.845841796603 553.4529717153055,-651.1533028390259 540.4052727291128,-684.1018173294142 537.7515541159664,-697.0205119373277 538.1937109867577,-711.0597288007848 541.1666120840237,-730.23306718003 548.0595836629509,-744.1797969955951 571.939547252201,-772.640723625198 572.8571466396679,-775.5592233194038 571.7090537802433,-777.9520818404853 569.9027988942689,-778.9781896346249 567.436441871745,-778.8810524553992 564.1514199379017,-777.8807895695791 561.2170898251352,-776.1638255054131 541.969298550277,-754.126706904266 537.7441075292882,-750.4180708476342 532.0169984759414,-748.9002247937024 509.6035217611934,-748.9318734444678 495.58697595784906,-747.3479299461469 485.02038133278256,-740.5004246821627 477.8713146680966,-731.1453258809634 467.24012516712537,-704.8709156825207 465.5939233491081,-698.9357864935882 463.37010937707964,-657.9400153434835 463.37010937707964,-657.9400153434835" />
<edge from="5871442377" to="8080225479" id="5871442377to8080225479" numLanes="1" shape="584.1476791921887,-591.845841796603 608.845288355893,-505.8470967183821 608.4028874789365,-498.39402896212414 605.7646292794379,-491.01201912015676 594.7712455753353,-476.0806849929504 593.2387319833506,-468.9952813126147 598.2636200617999,-374.95853833993897 595.258343306079,-369.0347289312631 589.8674413455883,-364.6969364657998 489.0313577685156,-295.1867901752703 486.80571594671346,-293.7521875547245 486.80571594671346,-293.7521875547245" />
<edge from="5871442378" to="5414306406" id="5871442378to5414306406" numLanes="1" shape="1029.360644508677,-596.406093491707 1029.360644508677,-596.406093491707 1030.1519659808837,-509.94026548648253 1031.305392338254,-435.7972595416941 1032.3807658292353,-334.63385466951877 1031.9806293234578,-279.7277332879603 1031.2029613946215,-226.29080541152507" />
<edge from="5871442378" to="5871442383" id="5871442378to5871442383" numLanes="1" shape="1029.360644508677,-596.406093491707 770.0124517828808,-596.3256147648208" />
<edge from="5871442379" to="5871442380" id="5871442379to5871442380" numLanes="1" shape="651.0944379553548,-514.3526904461905 650.4198550703586,-596.4251029682346" />
<edge from="5871442380" to="5871442377" id="5871442380to5871442377" numLanes="1" shape="650.4198550703586,-596.4251029682346 584.1476791921887,-591.845841796603" />
<edge from="5871442380" to="5871442379" id="5871442380to5871442379" numLanes="1" shape="650.4198550703586,-596.4251029682346 651.0944379553548,-514.3526904461905" />
<edge from="5871442380" to="8080225508" id="5871442380to8080225508" numLanes="1" shape="650.4198550703586,-596.4251029682346 683.307813817577,-596.3992092399858" />
<edge from="5871442381" to="5871442383" id="5871442381to5871442383" numLanes="1" shape="769.2343474662048,-637.6184190809727 770.0124517828808,-596.3256147648208" />
<edge from="5871442382" to="5871442383" id="5871442382to5871442383" numLanes="1" shape="770.8797152842744,-567.4752428745851 770.0124517828808,-596.3256147648208" />
<edge from="5871442383" to="5871442378" id="5871442383to5871442378" numLanes="1" shape="770.0124517828808,-596.3256147648208 1029.360644508677,-596.406093491707" />
<edge from="5871442383" to="5871442381" id="5871442383to5871442381" numLanes="1" shape="770.0124517828808,-596.3256147648208 769.2343474662048,-637.6184190809727" />
<edge from="5871442383" to="5871442382" id="5871442383to5871442382" numLanes="1" shape="770.0124517828808,-596.3256147648208 770.8797152842744,-567.4752428745851" />
<edge from="5871442383" to="8080225508" id="5871442383to8080225508" numLanes="1" shape="770.0124517828808,-596.3256147648208 683.307813817577,-596.3992092399858" />
<edge from="5871444985" to="8080225478" id="5871444985to8080225478" numLanes="1" shape="873.7049669357366,-99.31551768211648 1029.9585299287573,-100.0262690661475" />
<edge from="5871444989" to="5414306521" id="5871444989to5414306521" numLanes="1" shape="815.4857220921549,144.58048336207867 815.4857220921549,144.58048336207867 630.0075870068977,144.1093091215007 465.5869914838695,145.51989922346547 427.38538268051343,152.76508463313803" />
<edge from="5871444989" to="8096514758" id="5871444989to8096514758" numLanes="1" shape="815.4857220921549,144.58048336207867 889.5896092199837,149.82437682384625 942.0791604032274,160.74178493162617 973.5219451666926,160.62465293193236 1015.6312355765258,153.12824570480734 1024.7463065264164,149.14840726274997 1029.3561758272117,145.19330050889403 1029.3561758272117,145.19330050889403" />
<edge from="5871444989" to="5871444993" id="5871444989to5871444993" numLanes="1" shape="815.4857220921549,144.58048336207867 814.960384678503,77.2509887078777 813.6482450760086,68.68283476913348 806.71929832967,57.071084341499954 797.280532219098,49.27603093488142 787.8282247642637,45.03428907832131 777.0467978657107,43.227276680991054 755.9767910111113,46.37260329257697 743.1554615940549,47.00599694205448 733.5091522049042,44.65865432890132 725.240774032718,39.4445018558763 716.8631889636745,27.080545825418085 716.8631889636745,27.080545825418085" />
<edge from="5871444993" to="5871444989" id="5871444993to5871444989" numLanes="1" shape="716.8631889636745,27.080545825418085 716.8631889636745,27.080545825418085 725.240774032718,39.4445018558763 733.5091522049042,44.65865432890132 743.1554615940549,47.00599694205448 755.9767910111113,46.37260329257697 777.0467978657107,43.227276680991054 787.8282247642637,45.03428907832131 797.280532219098,49.27603093488142 806.71929832967,57.071084341499954 813.6482450760086,68.68283476913348 814.960384678503,77.2509887078777 815.4857220921549,144.58048336207867" />
<edge from="5871444994" to="7746660931" id="5871444994to7746660931" numLanes="1" shape="359.45629465195816,195.60262815561146 367.81233416189207,196.0783027713187 375.63898548850557,193.09355566231534 381.51874954393134,187.16888432623819 381.51874954393134,187.16888432623819" />
<edge from="5871444994" to="5414306523" id="5871444994to5414306523" numLanes="1" shape="359.45629465195816,195.60262815561146 365.6785822233651,199.84778909105808 385.01111204578774,217.40413071447983 385.01111204578774,217.40413071447983" />
<edge from="5871444994" to="7746660925" id="5871444994to7746660925" numLanes="1" shape="359.45629465195816,195.60262815561146 351.99296011275146,191.72159225819632" />
<edge from="5871444995" to="7746660925" id="5871444995to7746660925" numLanes="1" shape="344.86032007070025,176.89050278626382 346.80729923496256,185.07721615675837 351.99296011275146,191.72159225819632 351.99296011275146,191.72159225819632" />
<edge from="5871444995" to="5871445019" id="5871444995to5871445019" numLanes="1" shape="344.86032007070025,176.89050278626382 308.7742498446605,195.0886202598922 299.78504812991014,204.33677055174485 299.78504812991014,204.33677055174485" />
<edge from="5871444995" to="5871444996" id="5871444995to5871444996" numLanes="1" shape="344.86032007070025,176.89050278626382 344.86032007070025,176.89050278626382 345.95576406491455,170.07421195041388 349.3468070451054,164.04764125449583" />
<edge from="5871444996" to="5871444995" id="5871444996to5871444995" numLanes="1" shape="349.3468070451054,164.04764125449583 345.95576406491455,170.07421195041388 344.86032007070025,176.89050278626382 344.86032007070025,176.89050278626382" />
<edge from="5871444996" to="5871444997" id="5871444996to5871444997" numLanes="1" shape="349.3468070451054,164.04764125449583 349.3468070451054,164.04764125449583 356.151273750409,158.72438279958442 364.58214119338663,156.78637928143144" />
<edge from="5871444996" to="5871445007" id="5871444996to5871445007" numLanes="1" shape="349.3468070451054,164.04764125449583 349.3468070451054,164.04764125449583 344.207645530405,147.51811954332516 337.860683343024,134.20830477634445 274.5800835341797,22.217670963611454" />
<edge from="5871444997" to="5871445000" id="5871444997to5871445000" numLanes="1" shape="364.58214119338663,156.78637928143144 287.27585968899075,13.714749787934124" />
<edge from="5871444997" to="5871444996" id="5871444997to5871444996" numLanes="1" shape="364.58214119338663,156.78637928143144 356.151273750409,158.72438279958442 349.3468070451054,164.04764125449583 349.3468070451054,164.04764125449583" />
<edge from="5871444997" to="5871444998" id="5871444997to5871444998" numLanes="1" shape="364.58214119338663,156.78637928143144 364.58214119338663,156.78637928143144 369.75117809470976,157.42033098591492 374.5857013874338,159.36311739915982" />
<edge from="5871444998" to="5414306521" id="5871444998to5414306521" numLanes="1" shape="374.5857013874338,159.36311739915982 427.38538268051343,152.76508463313803" />
<edge from="5871444998" to="5414306522" id="5871444998to5414306522" numLanes="1" shape="374.5857013874338,159.36311739915982 374.5857013874338,159.36311739915982 380.533019163704,164.51815163949504 383.997066270269,171.56370150158182 384.4254681696766,179.39725764049217" />
<edge from="5871444998" to="5871444997" id="5871444998to5871444997" numLanes="1" shape="374.5857013874338,159.36311739915982 369.75117809470976,157.42033098591492 364.58214119338663,156.78637928143144 364.58214119338663,156.78637928143144" />
<edge from="5871445000" to="5871444997" id="5871445000to5871444997" numLanes="1" shape="287.27585968899075,13.714749787934124 364.58214119338663,156.78637928143144" />
<edge from="5871445000" to="5871445015" id="5871445000to5871445015" numLanes="1" shape="287.27585968899075,13.714749787934124 304.45157162769465,-5.837772335857153 314.7833886129665,-26.30970797687769 317.222599693283,-45.50099933007732 317.68445925501874,-64.89788271440193 310.4355712007964,-85.1076540038921 306.0695415628725,-95.13466668641195 290.19073814799776,-117.36758294748142 290.19073814799776,-117.36758294748142" />
<edge from="5871445000" to="5871445007" id="5871445000to5871445007" numLanes="1" shape="287.27585968899075,13.714749787934124 274.5800835341797,22.217670963611454" />
<edge from="5871445007" to="5871445000" id="5871445007to5871445000" numLanes="1" shape="274.5800835341797,22.217670963611454 287.27585968899075,13.714749787934124" />
<edge from="5871445007" to="5871444996" id="5871445007to5871444996" numLanes="1" shape="274.5800835341797,22.217670963611454 337.860683343024,134.20830477634445 344.207645530405,147.51811954332516 349.3468070451054,164.04764125449583 349.3468070451054,164.04764125449583" />
<edge from="5871445007" to="5871445012" id="5871445007to5871445012" numLanes="1" shape="274.5800835341797,22.217670963611454 274.5800835341797,22.217670963611454 253.23219055542722,27.214383639395237 239.26598416286288,28.47717031603679 225.58150510588894,27.058975351508707 210.45996014558477,23.715169611852616 189.5172155739856,15.315013985149562" />
<edge from="5871445012" to="5871445007" id="5871445012to5871445007" numLanes="1" shape="189.5172155739856,15.315013985149562 210.45996014558477,23.715169611852616 225.58150510588894,27.058975351508707 239.26598416286288,28.47717031603679 253.23219055542722,27.214383639395237 274.5800835341797,22.217670963611454 274.5800835341797,22.217670963611454" />