<edges>
<edge from="2480551059" to="9767517212" id="2480551059to9767517212" numLanes="1" shape="-387.88665077474434,-228.35041514597833 -406.34943560964894,-221.33694799244404 -435.7332752268994,-213.0337625835091 -435.7332752268994,-213.0337625835091" />
<edge from="2480551059" to="3151139990" id="2480551059to3151139990" numLanes="1" shape="-387.88665077474434,-228.35041514597833 -381.60193106078077,-227.16051249252632 -358.5449745672522,-232.2832042677328 -358.5449745672522,-232.2832042677328" />
<edge from="2480551059" to="3151139994" id="2480551059to3151139994" numLanes="1" shape="-387.88665077474434,-228.35041514597833 -387.88665077474434,-228.35041514597833 -383.64154325868003,-232.95890677673742 -359.57141980645247,-238.37786415591836" />
<edge from="2696640085" to="9767801409" id="2696640085to9767801409" numLanes="1" shape="-210.9987629087409,170.78640670329332 -109.62479511706624,19.698073969688267" />
<edge from="2696640085" to="2696640204" id="2696640085to2696640204" numLanes="1" shape="-210.9987629087409,170.78640670329332 -256.9278132101754,151.84535026876256 -294.93806301627774,139.84940751083195 -324.0298152655596,132.34950750879943 -351.9476823764853,127.38664233451709 -351.9476823764853,127.38664233451709" />
<edge from="2696640085" to="9767776320" id="2696640085to9767776320" numLanes="1" shape="-210.9987629087409,170.78640670329332 -236.08816930034664,208.27652730280533 -259.56926955177914,243.34412820450962 -271.84537387336604,274.6663755518384 -271.84537387336604,274.6663755518384" />
<edge from="2696640085" to="2696640193" id="2696640085to2696640193" numLanes="1" shape="-210.9987629087409,170.78640670329332 -196.76114210684318,181.78473644377664 -177.0869880048558,188.8592679295689 -150.87282019166742,198.49498508730903 -8.323099785018712,228.57964378455654 -8.323099785018712,228.57964378455654" />
<edge from="2696640091" to="3151265684" id="2696640091to3151265684" numLanes="1" shape="-41.61274681624491,-87.1406196593307 -43.1967722796835,-106.79612564528361 -45.59327913343441,-165.9917736412026 -45.59327913343441,-165.9917736412026" />
<edge from="2696640091" to="3151288279" id="2696640091to3151288279" numLanes="1" shape="-41.61274681624491,-87.1406196593307 -48.22620939835906,-71.81884609069675 -50.29602083808277,-68.7311478885822 -50.29602083808277,-68.7311478885822" />
<edge from="2696640091" to="3150779096" id="2696640091to3150779096" numLanes="1" shape="-41.61274681624491,-87.1406196593307 -23.147910902043805,-86.55349257681519 -1.3620643396861851,-86.51508170133457 -1.3620643396861851,-86.51508170133457" />
<edge from="2696640091" to="9907507632" id="2696640091to9907507632" numLanes="1" shape="-41.61274681624491,-87.1406196593307 -143.27049213962164,-94.99279580079019 -147.4574969393434,-50.82999443914741 -235.76473170460667,-46.218615828081965 -235.76473170460667,-46.218615828081965" />
<edge from="2696640097" to="2696640231" id="2696640097to2696640231" numLanes="1" shape="-54.34486298880074,-446.6886530476622 -159.73393229523208,-432.8330519576557" />
<edge from="2696640097" to="9767504435" id="2696640097to9767504435" numLanes="1" shape="-54.34486298880074,-446.6886530476622 -45.79292470344808,-456.8025467945263 -37.371092791319825,-461.74953704187647 -10.972877569496632,-478.5590091329068 -10.972877569496632,-478.5590091329068" />
<edge from="2696640097" to="2696640229" id="2696640097to2696640229" numLanes="1" shape="-54.34486298880074,-446.6886530476622 -56.63042532233521,-438.4916814919561 -54.91751931107137,-396.29942050855607 -54.91751931107137,-396.29942050855607" />
<edge from="2696640112" to="2696640241" id="2696640112to2696640241" numLanes="1" shape="100.01815518026706,-249.55093013122678 97.35693288932089,-366.14680142560974" />
<edge from="2696640112" to="9907507283" id="2696640112to9907507283" numLanes="1" shape="100.01815518026706,-249.55093013122678 139.99016393732745,-249.35356594715267" />
<edge from="2696640112" to="3151276099" id="2696640112to3151276099" numLanes="1" shape="100.01815518026706,-249.55093013122678 25.828927709837444,-254.20489695249125 -2.3039704263210297,-252.97197399800643 -2.3039704263210297,-252.97197399800643" />
<edge from="2696640120" to="3150780484" id="2696640120to3150780484" numLanes="1" shape="469.29163029859774,-117.0647865314968 443.1754961037077,-60.46320111071691 422.5167997999815,17.090049516875297 422.5167997999815,17.090049516875297" />
<edge from="2696640120" to="3150782048" id="2696640120to3150782048" numLanes="1" shape="469.29163029859774,-117.0647865314968 473.8806474598823,-121.87510876450688 476.8356246505864,-125.92783182347193 477.70934249751735,-129.51161285303533 480.251239026431,-135.20570214418694 480.251239026431,-135.20570214418694" />
<edge from="2696640120" to="3150782050" id="2696640120to3150782050" numLanes="1" shape="469.29163029859774,-117.0647865314968 469.29163029859774,-117.0647865314968 470.0866186498897,-125.57666934281588 470.72570285131223,-130.20928727462888 472.37417597253807,-135.37117848265916" />
<edge from="2696640125" to="9907507621" id="2696640125to9907507621" numLanes="1" shape="412.01654830330517,56.511418872047216 406.92173632152844,73.32472028210759" />
<edge from="2696640125" to="3150780484" id="2696640125to3150780484" numLanes="1" shape="412.01654830330517,56.511418872047216 422.5167997999815,17.090049516875297" />
<edge from="2696640125" to="9907507290" id="2696640125to9907507290" numLanes="1" shape="412.01654830330517,56.511418872047216 387.0492659561569,64.9127576793544 334.42060585145373,48.59610353317112 303.59400559042115,54.28693563584238 303.59400559042115,54.28693563584238" />
<edge from="2696640149" to="7649981517" id="2696640149to7649981517" numLanes="1" shape="284.4154521996388,230.78816318931058 297.19508138869423,259.7018685583025" />
<edge from="2696640149" to="7650047992" id="2696640149to7650047992" numLanes="1" shape="284.4154521996388,230.78816318931058 301.0050561084645,228.6436397265643" />
<edge from="2696640149" to="2696640159" id="2696640149to2696640159" numLanes="1" shape="284.4154521996388,230.78816318931058 233.95636893215124,248.87624042574316 211.0304075157037,251.89292133506387 183.33721405628603,252.99210209958255 128.11686896847095,248.60452720709145 68.06414567225147,238.35943364351988 68.06414567225147,238.35943364351988" />
<edge from="2696640159" to="2696640149" id="2696640159to2696640149" numLanes="1" shape="68.06414567225147,238.35943364351988 68.06414567225147,238.35943364351988 128.11686896847095,248.60452720709145 183.33721405628603,252.99210209958255 211.0304075157037,251.89292133506387 233.95636893215124,248.87624042574316 284.4154521996388,230.78816318931058" />
<edge from="2696640159" to="3151260042" id="2696640159to3151260042" numLanes="1" shape="68.06414567225147,238.35943364351988 67.39090834918898,46.723878854420036 71.15085606428329,29.52180388569832 71.47578505927231,16.626720896922052 70.37473436968867,-1.4633823218755424 68.88173546514008,-24.72244934272021 68.88173546514008,-24.72244934272021" />
<edge from="2696640159" to="7649981526" id="2696640159to7649981526" numLanes="1" shape="68.06414567225147,238.35943364351988 72.3394856165396,259.4141908013262 75.66029714338947,398.5381785063073 114.92869986058213,454.9465415161103 120.81868542276789,459.88797060307115 135.31214599730447,457.25770340580493 158.36779147968628,449.4623075760901 187.30406803172082,441.22719194274396 187.30406803172082,441.22719194274396" />
<edge from="2696640159" to="2696640193" id="2696640159to2696640193" numLanes="1" shape="68.06414567225147,238.35943364351988 0.4781495680799708,230.43231118982658 -8.323099785018712,228.57964378455654 -8.323099785018712,228.57964378455654" />
<edge from="2696640184" to="7649981526" id="2696640184to7649981526" numLanes="1" shape="229.32542618457228,472.79752916283906 187.30406803172082,441.22719194274396" />
<edge from="2696640184" to="5496019084" id="2696640184to5496019084" numLanes="1" shape="229.32542618457228,472.79752916283906 206.43989201588556,494.5543734389357" />
<edge from="2696640184" to="5496019088" id="2696640184to5496019088" numLanes="1" shape="229.32542618457228,472.79752916283906 296.9614521135809,404.30617203423753 337.91311936744023,364.0440900288522 359.94916133384686,345.3171206912957 359.94916133384686,345.3171206912957" />
<edge from="2696640193" to="2696640085" id="2696640193to2696640085" numLanes="1" shape="-8.323099785018712,228.57964378455654 -8.323099785018712,228.57964378455654 -150.87282019166742,198.49498508730903 -177.0869880048558,188.8592679295689 -196.76114210684318,181.78473644377664 -210.9987629087409,170.78640670329332" />
<edge from="2696640193" to="2696640159" id="2696640193to2696640159" numLanes="1" shape="-8.323099785018712,228.57964378455654 -8.323099785018712,228.57964378455654 0.4781495680799708,230.43231118982658 68.06414567225147,238.35943364351988" />
<edge from="2696640193" to="9767776343" id="2696640193to9767776343" numLanes="1" shape="-8.323099785018712,228.57964378455654 -47.48046918073669,401.87049131607637 -81.75844581134152,442.1355084972456 -95.41411870101001,503.6451052413322 -95.41411870101001,503.6451052413322" />
<edge from="2696640197" to="2696640198" id="2696640197to2696640198" numLanes="1" shape="-108.6439373641042,563.2238440527581 4.29779789224267,587.7372256917879" />
<edge from="2696640197" to="9767776343" id="2696640197to9767776343" numLanes="1" shape="-108.6439373641042,563.2238440527581 -95.41411870101001,503.6451052413322" />
<edge from="2696640197" to="2696640199" id="2696640197to2696640199" numLanes="1" shape="-108.6439373641042,563.2238440527581 -132.73800300213043,660.2624027188867" />
<edge from="2696640198" to="2696640197" id="2696640198to2696640197" numLanes="1" shape="4.29779789224267,587.7372256917879 -108.6439373641042,563.2238440527581" />
<edge from="2696640199" to="2696640197" id="2696640199to2696640197" numLanes="1" shape="-132.73800300213043,660.2624027188867 -108.6439373641042,563.2238440527581" />
<edge from="2696640204" to="2696640085" id="2696640204to2696640085" numLanes="1" shape="-351.9476823764853,127.38664233451709 -351.9476823764853,127.38664233451709 -324.0298152655596,132.34950750879943 -294.93806301627774,139.84940751083195 -256.9278132101754,151.84535026876256 -210.9987629087409,170.78640670329332" />
<edge from="2696640204" to="3151213301" id="2696640204to3151213301" numLanes="1" shape="-351.9476823764853,127.38664233451709 -373.25979505002033,132.752852241043 -384.5581151790684,135.5973300077021 -412.86739035660867,138.8903748691082 -429.6040939158993,135.74005616270006 -447.95762695057783,132.282822270412 -464.8858723321464,130.98056635074317 -487.14627225266304,125.99391530780122 -497.97530346608255,128.25119070429355 -509.2417087991489,130.59733050176874 -509.2417087991489,130.59733050176874" />
<edge from="2696640204" to="9767801406" id="2696640204to9767801406" numLanes="1" shape="-351.9476823764853,127.38664233451709 -355.2887758697616,108.75211606360972 -374.68255253636744,63.61881883209571 -380.7111107070232,9.20263275783509 -380.7111107070232,9.20263275783509" />
<edge from="2696640211" to="3151213301" id="2696640211to3151213301" numLanes="1" shape="-515.8228434504708,131.97401021281257 -509.2417087991489,130.59733050176874" />
<edge from="2696640227" to="3151139980" id="2696640227to3151139980" numLanes="1" shape="-400.01265587832313,-360.2393098049797 -381.6798945829505,-336.7010817434639 -368.0679714612197,-321.1699478547089 -359.1151842911495,-303.02668763743713 -358.2447269484401,-271.895064689219 -356.86822036025114,-253.5762601401657 -355.8728033658117,-241.63543820241466 -355.8728033658117,-241.63543820241466" />
<edge from="2696640227" to="9767801418" id="2696640227to9767801418" numLanes="1" shape="-400.01265587832313,-360.2393098049797 -421.5010169291636,-389.42643100908026 -419.5560708962148,-404.85470387060195 -417.68892282259185,-417.1894956161268 -410.79732567060273,-423.20704606641084 -373.8176896866644,-426.670455864165 -373.8176896866644,-426.670455864165" />
<edge from="2696640229" to="2696640097" id="2696640229to2696640097" numLanes="1" shape="-54.91751931107137,-396.29942050855607 -54.91751931107137,-396.29942050855607 -56.63042532233521,-438.4916814919561 -54.34486298880074,-446.6886530476622" />
<edge from="2696640229" to="2696640242" id="2696640229to2696640242" numLanes="1" shape="-54.91751931107137,-396.29942050855607 -53.39394386194181,-358.494367568288" />
<edge from="2696640229" to="2696640231" id="2696640229to2696640231" numLanes="1" shape="-54.91751931107137,-396.29942050855607 -154.48990873934235,-388.37737702718005 -159.73393229523208,-432.8330519576557 -159.73393229523208,-432.8330519576557" />
<edge from="2696640231" to="2696640097" id="2696640231to2696640097" numLanes="1" shape="-159.73393229523208,-432.8330519576557 -54.34486298880074,-446.6886530476622" />
<edge from="2696640231" to="2696640229" id="2696640231to2696640229" numLanes="1" shape="-159.73393229523208,-432.8330519576557 -159.73393229523208,-432.8330519576557 -154.48990873934235,-388.37737702718005 -54.91751931107137,-396.29942050855607" />
<edge from="2696640231" to="2696640232" id="2696640231to2696640232" numLanes="1" shape="-159.73393229523208,-432.8330519576557 -199.08332869026344,-429.7406430663541" />
<edge from="2696640232" to="2696640231" id="2696640232to2696640231" numLanes="1" shape="-199.08332869026344,-429.7406430663541 -159.73393229523208,-432.8330519576557" />
<edge from="2696640232" to="3151341417" id="2696640232to3151341417" numLanes="1" shape="-199.08332869026344,-429.7406430663541 -193.296735148062,-283.51000093482435" />
<edge from="2696640232" to="2696640240" id="2696640232to2696640240" numLanes="1" shape="-199.08332869026344,-429.7406430663541 -205.99970084324013,-559.1467000460252" />
<edge from="2696640232" to="9767801418" id="2696640232to9767801418" numLanes="1" shape="-199.08332869026344,-429.7406430663541 -219.5309312712634,-441.0948768276721 -373.8176896866644,-426.670455864165 -373.8176896866644,-426.670455864165" />
<edge from="2696640233" to="3151341417" id="2696640233to3151341417" numLanes="1" shape="-191.89420327788685,-245.8744749194011 -193.296735148062,-283.51000093482435" />
<edge from="2696640233" to="9767801414" id="2696640233to9767801414" numLanes="1" shape="-191.89420327788685,-245.8744749194011 -234.64284609665629,-249.8572834781371" />
<edge from="2696640233" to="9907507624" id="2696640233to9907507624" numLanes="1" shape="-191.89420327788685,-245.8744749194011 -160.68020920699928,-246.96373884333298" />
<edge from="2696640240" to="2696640232" id="2696640240to2696640232" numLanes="1" shape="-205.99970084324013,-559.1467000460252 -199.08332869026344,-429.7406430663541" />
<edge from="2696640241" to="2696640112" id="2696640241to2696640112" numLanes="1" shape="97.35693288932089,-366.14680142560974 100.01815518026706,-249.55093013122678" />
<edge from="2696640241" to="2696640242" id="2696640241to2696640242" numLanes="1" shape="97.35693288932089,-366.14680142560974 -53.39394386194181,-358.494367568288" />
<edge from="2696640241" to="2932867527" id="2696640241to2932867527" numLanes="1" shape="97.35693288932089,-366.14680142560974 198.30417470959947,-367.9852621983737" />
<edge from="2696640241" to="9767801400" id="2696640241to9767801400" numLanes="1" shape="97.35693288932089,-366.14680142560974 94.55300196015742,-471.32968177553266 94.33163599960972,-476.361207716167 94.33163599960972,-476.361207716167" />
<edge from="2696640242" to="2696640229" id="2696640242to2696640229" numLanes="1" shape="-53.39394386194181,-358.494367568288 -54.91751931107137,-396.29942050855607" />
<edge from="2696640242" to="2696640241" id="2696640242to2696640241" numLanes="1" shape="-53.39394386194181,-358.494367568288 97.35693288932089,-366.14680142560974" />
<edge from="2696640242" to="3150655662" id="2696640242to3150655662" numLanes="1" shape="-53.39394386194181,-358.494367568288 -48.35339350521099,-277.5640197247267" />
<edge from="2696640245" to="2696640252" id="2696640245to2696640252" numLanes="1" shape="406.98827512876596,-374.75007317308336 408.9532158599468,-360.2550230291672 414.55087442928925,-310.74176617432386 414.23120419622865,-282.73534725187346 408.96350496134255,-257.53869835846126 395.1912689228775,-231.40271210344508 383.006066789967,-216.80969948740676 383.006066789967,-216.80969948740676" />
<edge from="2696640245" to="2932867527" id="2696640245to2932867527" numLanes="1" shape="406.98827512876596,-374.75007317308336 394.25025498040486,-373.5180974435061 198.30417470959947,-367.9852621983737 198.30417470959947,-367.9852621983737" />
<edge from="2696640245" to="3636987720" id="2696640245to3636987720" numLanes="1" shape="406.98827512876596,-374.75007317308336 404.5553778676549,-413.63229343434796 401.40216252265964,-515.2074293275364 389.4209092654055,-516.7633384559304 386.34738476981875,-548.2725322283804 378.1811048378004,-554.236711001955 375.6279103384586,-572.2525474997237 349.74743402551394,-574.0923649417236 349.22166556853335,-579.3201950443909 346.28363446041476,-580.1598275108263 289.23134099540766,-606.7947251526639 228.25252353260294,-604.271233915817 224.0067102223402,-597.7324569784105 228.6088211311726,-515.2041231980547 234.13487884413917,-510.38281076867133 252.63556786742993,-505.43412738945335 252.63556786742993,-505.43412738945335" />
<edge from="2696640252" to="2696640245" id="2696640252to2696640245" numLanes="1" shape="383.006066789967,-216.80969948740676 383.006066789967,-216.80969948740676 395.1912689228775,-231.40271210344508 408.96350496134255,-257.53869835846126 414.23120419622865,-282.73534725187346 414.55087442928925,-310.74176617432386 408.9532158599468,-360.2550230291672 406.98827512876596,-374.75007317308336" />
<edge from="2696640252" to="3150629367" id="2696640252to3150629367" numLanes="1" shape="383.006066789967,-216.80969948740676 414.84526528941933,-192.07496681716293 464.8036373525392,-150.75105273909867 464.8036373525392,-150.75105273909867" />
<edge from="2696640252" to="2696640253" id="2696640252to2696640253" numLanes="1" shape="383.006066789967,-216.80969948740676 344.20746965066064,-243.5948718530126 296.09696824720595,-248.9353921506554 199.0106387337437,-249.0753357289359 199.0106387337437,-249.0753357289359" />
<edge from="2696640253" to="2696640252" id="2696640253to2696640252" numLanes="1" shape="199.0106387337437,-249.0753357289359 199.0106387337437,-249.0753357289359 296.09696824720595,-248.9353921506554 344.20746965066064,-243.5948718530126 383.006066789967,-216.80969948740676" />
<edge from="2696640253" to="2932867527" id="2696640253to2932867527" numLanes="1" shape="199.0106387337437,-249.0753357289359 198.30417470959947,-367.9852621983737" />
<edge from="2696640253" to="9907507283" id="2696640253to9907507283" numLanes="1" shape="199.0106387337437,-249.0753357289359 139.99016393732745,-249.35356594715267" />
<edge from="2932867527" to="2696640241" id="2932867527to2696640241" numLanes="1" shape="198.30417470959947,-367.9852621983737 97.35693288932089,-366.14680142560974" />
<edge from="2932867527" to="2696640245" id="2932867527to2696640245" numLanes="1" shape="198.30417470959947,-367.9852621983737 198.30417470959947,-367.9852621983737 394.25025498040486,-373.5180974435061 406.98827512876596,-374.75007317308336" />
<edge from="2932867527" to="2696640253" id="2932867527to2696640253" numLanes="1" shape="198.30417470959947,-367.9852621983737 199.0106387337437,-249.0753357289359" />
<edge from="2932867527" to="3636987719" id="2932867527to3636987719" numLanes="1" shape="198.30417470959947,-367.9852621983737 195.1460640572477,-439.1271900110878 200.2737081188243,-444.5897371019237 208.76931327523198,-447.47105549136177 255.91288299963344,-449.38920844579116 255.91288299963344,-449.38920844579116" />
<edge from="3150625362" to="9767801414" id="3150625362to9767801414" numLanes="1" shape="-316.9314739515539,-243.52926656836644 -292.3665045510279,-246.7055842243135 -241.95569974614773,-250.54059515008703 -234.64284609665629,-249.8572834781371 -234.64284609665629,-249.8572834781371" />
<edge from="3150625362" to="3151139993" id="3150625362to3151139993" numLanes="1" shape="-316.9314739515539,-243.52926656836644 -324.8012949178228,-245.13630859088153 -349.5836320677772,-239.46906633954495 -349.5836320677772,-239.46906633954495" />
<edge from="3150625362" to="3151139986" id="3150625362to3151139986" numLanes="1" shape="-316.9314739515539,-243.52926656836644 -316.9314739515539,-243.52926656836644 -323.79559035622515,-238.98669167980552 -349.23535327927675,-233.32489753421396" />
<edge from="3150625372" to="3151340939" id="3150625372to3151340939" numLanes="1" shape="-74.7757346049184,-253.63225653395057 -85.20792149740737,-253.32912274450064" />
<edge from="3150625372" to="3150667040" id="3150625372to3150667040" numLanes="1" shape="-74.7757346049184,-253.63225653395057 -68.71243785822298,-250.56163610098884 -55.46513237815816,-250.1392656136304 -55.46513237815816,-250.1392656136304" />
<edge from="3150625372" to="3150667047" id="3150625372to3150667047" numLanes="1" shape="-74.7757346049184,-253.63225653395057 -74.7757346049184,-253.63225653395057 -68.83929741929751,-257.0441919215955 -55.24418389762286,-256.2247452749871" />
<edge from="3150629367" to="2696640252" id="3150629367to2696640252" numLanes="1" shape="464.8036373525392,-150.75105273909867 464.8036373525392,-150.75105273909867 414.84526528941933,-192.07496681716293 383.006066789967,-216.80969948740676" />
<edge from="3150629367" to="3150782045" id="3150629367to3150782045" numLanes="1" shape="464.8036373525392,-150.75105273909867 466.7578394121956,-147.71722938632593 468.6515137399547,-145.3506239829585 469.7378804475302,-143.18190599791706 469.7378804475302,-143.18190599791706" />
<edge from="3150629367" to="3150782055" id="3150629367to3150782055" numLanes="1" shape="464.8036373525392,-150.75105273909867 472.68642592721153,-146.97961110342294" />
<edge from="3150629379" to="3151276099" id="3150629379to3151276099" numLanes="1" shape="-14.744528482086025,-255.09378179721534 -2.3039704263210297,-252.97197399800643" />
<edge from="3150629379" to="3150667037" id="3150629379to3150667037" numLanes="1" shape="-14.744528482086025,-255.09378179721534 -24.445057430886663,-258.50012893695384 -39.5773834210122,-258.182279674802 -39.5773834210122,-258.182279674802" />
<edge from="3150629379" to="3150667042" id="3150629379to3150667042" numLanes="1" shape="-14.744528482086025,-255.09378179721534 -14.744528482086025,-255.09378179721534 -25.069674754166044,-250.59417313011363 -38.44936891179532,-249.59977972367778" />
<edge from="3150655661" to="3151265684" id="3150655661to3151265684" numLanes="1" shape="-48.79985292209312,-225.66270111966878 -45.59327913343441,-165.9917736412026" />
<edge from="3150655661" to="3150667046" id="3150655661to3150667046" numLanes="1" shape="-48.79985292209312,-225.66270111966878 -44.98009355284739,-230.27069545397535 -43.67473517579492,-244.47244729893282 -43.67473517579492,-244.47244729893282" />
<edge from="3150655661" to="3150667036" id="3150655661to3150667036" numLanes="1" shape="-48.79985292209312,-225.66270111966878 -48.79985292209312,-225.66270111966878 -52.35081075725611,-231.34390925988555 -52.346211351803504,-245.73374697566032" />
<edge from="3150655662" to="2696640242" id="3150655662to2696640242" numLanes="1" shape="-48.35339350521099,-277.5640197247267 -53.39394386194181,-358.494367568288" />
<edge from="3150655662" to="5601335996" id="3150655662to5601335996" numLanes="1" shape="-48.35339350521099,-277.5640197247267 -52.61006818944588,-273.654903838411 -52.482217915239744,-259.9163242452778 -52.482217915239744,-259.9163242452778" />
<edge from="3150655662" to="3150667044" id="3150655662to3150667044" numLanes="1" shape="-48.35339350521099,-277.5640197247267 -48.35339350521099,-277.5640197247267 -45.053809265140444,-273.42022500000894 -44.665047816815786,-261.5944735482335" />
<edge from="3150667036" to="3150667046" id="3150667036to3150667046" numLanes="1" shape="-52.346211351803504,-245.73374697566032 -49.65443297789898,-244.33458023285493 -46.64843692688737,-243.89274675259367 -43.67473517579492,-244.47244729893282 -43.67473517579492,-244.47244729893282" />
<edge from="3150667036" to="3150655661" id="3150667036to3150655661" numLanes="1" shape="-52.346211351803504,-245.73374697566032 -52.35081075725611,-231.34390925988555 -48.79985292209312,-225.66270111966878 -48.79985292209312,-225.66270111966878" />
<edge from="3150667036" to="3150667040" id="3150667036to3150667040" numLanes="1" shape="-52.346211351803504,-245.73374697566032 -52.346211351803504,-245.73374697566032 -54.25005965458695,-247.70109399035573 -55.46513237815816,-250.1392656136304" />
<edge from="3150667037" to="3150629379" id="3150667037to3150629379" numLanes="1" shape="-39.5773834210122,-258.182279674802 -39.5773834210122,-258.182279674802 -24.445057430886663,-258.50012893695384 -14.744528482086025,-255.09378179721534" />
<edge from="3150667037" to="3150667044" id="3150667037to3150667044" numLanes="1" shape="-39.5773834210122,-258.182279674802 -40.989586835959926,-259.7045495114289 -42.71087375411298,-260.8573802439496 -44.665047816815786,-261.5944735482335 -44.665047816815786,-261.5944735482335" />
<edge from="3150667037" to="3150667042" id="3150667037to3150667042" numLanes="1" shape="-39.5773834210122,-258.182279674802 -39.5773834210122,-258.182279674802 -38.22321493376512,-255.507612102665 -37.833895938121714,-252.53549540927634 -38.44936891179532,-249.59977972367778" />
<edge from="3150667040" to="3150625372" id="3150667040to3150625372" numLanes="1" shape="-55.46513237815816,-250.1392656136304 -55.46513237815816,-250.1392656136304 -68.71243785822298,-250.56163610098884 -74.7757346049184,-253.63225653395057" />
<edge from="3150667040" to="3150667036" id="3150667040to3150667036" numLanes="1" shape="-55.46513237815816,-250.1392656136304 -54.25005965458695,-247.70109399035573 -52.346211351803504,-245.73374697566032 -52.346211351803504,-245.73374697566032" />
<edge from="3150667040" to="3150667047" id="3150667040to3150667047" numLanes="1" shape="-55.46513237815816,-250.1392656136304 -55.46513237815816,-250.1392656136304 -55.890878566890024,-253.20105699636042 -55.24418389762286,-256.2247452749871" />
<edge from="3150667042" to="3150667037" id="3150667042to3150667037" numLanes="1" shape="-38.44936891179532,-249.59977972367778 -37.833895938121714,-252.53549540927634 -38.22321493376512,-255.507612102665 -39.5773834210122,-258.182279674802 -39.5773834210122,-258.182279674802" />
<edge from="3150667042" to="3150629379" id="3150667042to3150629379" numLanes="1" shape="-38.44936891179532,-249.59977972367778 -25.069674754166044,-250.59417313011363 -14.744528482086025,-255.09378179721534 -14.744528482086025,-255.09378179721534" />
<edge from="3150667042" to="3150667046" id="3150667042to3150667046" numLanes="1" shape="-38.44936891179532,-249.59977972367778 -38.44936891179532,-249.59977972367778 -40.5200477555627,-246.4788180263713 -43.67473517579492,-244.47244729893282" />
<edge from="3150667044" to="3150667037" id="3150667044to3150667037" numLanes="1" shape="-44.665047816815786,-261.5944735482335 -44.665047816815786,-261.5944735482335 -42.71087375411298,-260.8573802439496 -40.989586835959926,-259.7045495114289 -39.5773834210122,-258.182279674802" />
<edge from="3150667044" to="5601335996" id="3150667044to5601335996" numLanes="1" shape="-44.665047816815786,-261.5944735482335 -47.40492026822176,-261.8520880811848 -50.098086582962424,-261.27641579695046 -52.482217915239744,-259.9163242452778 -52.482217915239744,-259.9163242452778" />
<edge from="3150667044" to="3150655662" id="3150667044to3150655662" numLanes="1" shape="-44.665047816815786,-261.5944735482335 -45.053809265140444,-273.42022500000894 -48.35339350521099,-277.5640197247267 -48.35339350521099,-277.5640197247267" />
<edge from="3150667046" to="3150655661" id="3150667046to3150655661" numLanes="1" shape="-43.67473517579492,-244.47244729893282 -43.67473517579492,-244.47244729893282 -44.98009355284739,-230.27069545397535 -48.79985292209312,-225.66270111966878" />
<edge from="3150667046" to="3150667036" id="3150667046to3150667036" numLanes="1" shape="-43.67473517579492,-244.47244729893282 -43.67473517579492,-244.47244729893282 -46.64843692688737,-243.89274675259367 -49.65443297789898,-244.33458023285493 -52.346211351803504,-245.73374697566032" />
<edge from="3150667046" to="3150667042" id="3150667046to3150667042" numLanes="1" shape="-43.67473517579492,-244.47244729893282 -40.5200477555627,-246.4788180263713 -38.44936891179532,-249.59977972367778 -38.44936891179532,-249.59977972367778" />
<edge from="3150667047" to="3150667040" id="3150667047to3150667040" numLanes="1" shape="-55.24418389762286,-256.2247452749871 -55.890878566890024,-253.20105699636042 -55.46513237815816,-250.1392656136304 -55.46513237815816,-250.1392656136304" />
<edge from="3150667047" to="3150625372" id="3150667047to3150625372" numLanes="1" shape="-55.24418389762286,-256.2247452749871 -68.83929741929751,-257.0441919215955 -74.7757346049184,-253.63225653395057 -74.7757346049184,-253.63225653395057" />
<edge from="3150667047" to="5601335996" id="3150667047to5601335996" numLanes="1" shape="-55.24418389762286,-256.2247452749871 -55.24418389762286,-256.2247452749871 -54.11014087975491,-258.2487231413834 -52.482217915239744,-259.9163242452778" />
<edge from="3150779078" to="3150780484" id="3150779078to3150780484" numLanes="1" shape="202.05117707967293,-47.83840637514368 222.6764369389275,-43.191168239340186 241.2303964527091,-38.08575098821893 265.4630032577552,-32.30456426972523 286.0718803979689,-26.62579640094191 309.3098303255392,-22.433963675051928 324.8068644508021,-19.968399738892913 344.4240070563974,-16.37817105371505 364.0247943677241,-11.756498532369733 378.4491675446043,-7.786825138609856 394.38999051670544,-2.2145035257562995 405.7025508143706,1.6767070218920708 415.3028385328362,11.726752639748156 422.5167997999815,17.090049516875297 422.5167997999815,17.090049516875297" />