<connections>
<connection from="268789959to268789836" to="268789836to268789959" />
<connection from="268789959to268789836" to="268789836to268790945" />
<connection from="268790945to268789836" to="268789836to268789959" />
<connection from="268790945to268789836" to="268789836to268790945" />
<connection from="268789861to268789860" to="268789860to268789861" />
<connection from="268789861to268789860" to="268789860to3248845375" />
<connection from="268789861to268789860" to="268789860to330576733" />
<connection from="3248845375to268789860" to="268789860to268789861" />
<connection from="3248845375to268789860" to="268789860to3248845375" />
<connection from="3248845375to268789860" to="268789860to330576733" />
<connection from="330576733to268789860" to="268789860to268789861" />
<connection from="330576733to268789860" to="268789860to3248845375" />
<connection from="330576733to268789860" to="268789860to330576733" />
<connection from="268789860to268789861" to="268789861to268789860" />
<connection from="268789860to268789861" to="268789861to330576770" />
<connection from="268789860to268789861" to="268789861to330576733" />
<connection from="268789860to268789861" to="268789861to330576757" />
<connection from="330576770to268789861" to="268789861to268789860" />
<connection from="330576770to268789861" to="268789861to330576770" />
<connection from="330576770to268789861" to="268789861to330576733" />
<connection from="330576770to268789861" to="268789861to330576757" />
<connection from="330576733to268789861" to="268789861to268789860" />
<connection from="330576733to268789861" to="268789861to330576770" />
<connection from="330576733to268789861" to="268789861to330576733" />
<connection from="330576733to268789861" to="268789861to330576757" />
<connection from="330576757to268789861" to="268789861to268789860" />
<connection from="330576757to268789861" to="268789861to330576770" />
<connection from="330576757to268789861" to="268789861to330576733" />
<connection from="330576757to268789861" to="268789861to330576757" />
<connection from="268789869to268789868" to="268789868to268789869" />
<connection from="268789869to268789868" to="268789868to330593466" />
<connection from="268789869to268789868" to="268789868to268789954" />
<connection from="330593466to268789868" to="268789868to268789869" />
<connection from="330593466to268789868" to="268789868to330593466" />
<connection from="330593466to268789868" to="268789868to268789954" />
<connection from="268789954to268789868" to="268789868to268789869" />
<connection from="268789954to268789868" to="268789868to330593466" />
<connection from="268789954to268789868" to="268789868to268789954" />
<connection from="268789868to268789869" to="268789869to268789868" />
<connection from="268789868to268789869" to="268789869to330593480" />
<connection from="268789868to268789869" to="268789869to330593514" />
<connection from="330593480to268789869" to="268789869to268789868" />
<connection from="330593480to268789869" to="268789869to330593480" />
<connection from="330593480to268789869" to="268789869to330593514" />
<connection from="330593514to268789869" to="268789869to268789868" />
<connection from="330593514to268789869" to="268789869to330593480" />
<connection from="330593514to268789869" to="268789869to330593514" />
<connection from="330593480to268789870" to="268789870to330593480" />
<connection from="330593480to268789870" to="268789870to330593523" />
<connection from="330593480to268789870" to="268789870to330593697" />
<connection from="330593523to268789870" to="268789870to330593480" />
<connection from="330593523to268789870" to="268789870to330593523" />
<connection from="330593523to268789870" to="268789870to330593697" />
<connection from="330593697to268789870" to="268789870to330593480" />
<connection from="330593697to268789870" to="268789870to330593523" />
<connection from="330593697to268789870" to="268789870to330593697" />
<connection from="330593716to268789874" to="268789874to330593716" />
<connection from="330593716to268789874" to="268789874to330779489" />
<connection from="330593716to268789874" to="268789874to268789985" />
<connection from="330779489to268789874" to="268789874to330593716" />
<connection from="330779489to268789874" to="268789874to330779489" />
<connection from="330779489to268789874" to="268789874to268789985" />
<connection from="268789985to268789874" to="268789874to330593716" />
<connection from="268789985to268789874" to="268789874to330779489" />
<connection from="268789985to268789874" to="268789874to268789985" />
<connection from="330779489to268789875" to="268789875to330779489" />
<connection from="330779489to268789875" to="268789875to330612027" />
<connection from="330779489to268789875" to="268789875to330653324" />
<connection from="330612027to268789875" to="268789875to330779489" />
<connection from="330612027to268789875" to="268789875to330612027" />
<connection from="330612027to268789875" to="268789875to330653324" />
<connection from="330653324to268789875" to="268789875to330779489" />
<connection from="330653324to268789875" to="268789875to330612027" />
<connection from="330653324to268789875" to="268789875to330653324" />
<connection from="268789942to268789877" to="268789877to268789942" />
<connection from="268789942to268789877" to="268789877to330576694" />
<connection from="268789942to268789877" to="268789877to268789879" />
<connection from="268789942to268789877" to="268789877to3371735058" />
<connection from="330576694to268789877" to="268789877to268789942" />
<connection from="330576694to268789877" to="268789877to330576694" />
<connection from="330576694to268789877" to="268789877to268789879" />
<connection from="330576694to268789877" to="268789877to3371735058" />
<connection from="268789879to268789877" to="268789877to268789942" />
<connection from="268789879to268789877" to="268789877to330576694" />
<connection from="268789879to268789877" to="268789877to268789879" />
<connection from="268789879to268789877" to="268789877to3371735058" />
<connection from="3371735058to268789877" to="268789877to268789942" />
<connection from="3371735058to268789877" to="268789877to330576694" />
<connection from="3371735058to268789877" to="268789877to268789879" />
<connection from="3371735058to268789877" to="268789877to3371735058" />
<connection from="268789877to268789879" to="268789879to268789877" />
<connection from="268789877to268789879" to="268789879to330576671" />
<connection from="268789877to268789879" to="268789879to3371735058" />
<connection from="330576671to268789879" to="268789879to268789877" />
<connection from="330576671to268789879" to="268789879to330576671" />
<connection from="330576671to268789879" to="268789879to3371735058" />
<connection from="3371735058to268789879" to="268789879to268789877" />
<connection from="3371735058to268789879" to="268789879to330576671" />
<connection from="3371735058to268789879" to="268789879to3371735058" />
<connection from="330576059to268789880" to="268789880to330576059" />
<connection from="330576059to268789880" to="268789880to268789881" />
<connection from="330576059to268789880" to="268789880to330576678" />
<connection from="268789881to268789880" to="268789880to330576059" />
<connection from="268789881to268789880" to="268789880to268789881" />
<connection from="268789881to268789880" to="268789880to330576678" />
<connection from="330576678to268789880" to="268789880to330576059" />
<connection from="330576678to268789880" to="268789880to268789881" />
<connection from="330576678to268789880" to="268789880to330576678" />
<connection from="268789880to268789881" to="268789881to268789880" />
<connection from="268789880to268789881" to="268789881to330576253" />
<connection from="268789880to268789881" to="268789881to6773818264" />
<connection from="330576253to268789881" to="268789881to268789880" />
<connection from="330576253to268789881" to="268789881to330576253" />
<connection from="330576253to268789881" to="268789881to6773818264" />
<connection from="6773818264to268789881" to="268789881to268789880" />
<connection from="6773818264to268789881" to="268789881to330576253" />
<connection from="6773818264to268789881" to="268789881to6773818264" />
<connection from="268789963to268789882" to="268789882to268789963" />
<connection from="268789963to268789882" to="268789882to330576404" />
<connection from="268789963to268789882" to="268789882to6773818264" />
<connection from="330576404to268789882" to="268789882to268789963" />
<connection from="330576404to268789882" to="268789882to330576404" />
<connection from="330576404to268789882" to="268789882to6773818264" />
<connection from="6773818264to268789882" to="268789882to268789963" />
<connection from="6773818264to268789882" to="268789882to330576404" />
<connection from="6773818264to268789882" to="268789882to6773818264" />
<connection from="330593466to268789920" to="268789920to330593466" />
<connection from="330593466to268789920" to="268789920to330576496" />
<connection from="330593466to268789920" to="268789920to268789961" />
<connection from="330576496to268789920" to="268789920to330593466" />
<connection from="330576496to268789920" to="268789920to330576496" />
<connection from="330576496to268789920" to="268789920to268789961" />
<connection from="268789961to268789920" to="268789920to330593466" />
<connection from="268789961to268789920" to="268789920to330576496" />
<connection from="268789961to268789920" to="268789920to268789961" />
<connection from="268789939to268789926" to="268789926to268789939" />
<connection from="268789939to268789926" to="268789926to330593548" />
<connection from="268789939to268789926" to="268789926to330593595" />
<connection from="268789939to268789926" to="268789926to330593476" />
<connection from="330593548to268789926" to="268789926to268789939" />
<connection from="330593548to268789926" to="268789926to330593548" />
<connection from="330593548to268789926" to="268789926to330593595" />
<connection from="330593548to268789926" to="268789926to330593476" />
<connection from="330593595to268789926" to="268789926to268789939" />
<connection from="330593595to268789926" to="268789926to330593548" />
<connection from="330593595to268789926" to="268789926to330593595" />
<connection from="330593595to268789926" to="268789926to330593476" />
<connection from="330593476to268789926" to="268789926to268789939" />
<connection from="330593476to268789926" to="268789926to330593548" />
<connection from="330593476to268789926" to="268789926to330593595" />
<connection from="330593476to268789926" to="268789926to330593476" />
<connection from="268789926to268789939" to="268789939to268789926" />
<connection from="268789926to268789939" to="268789939to330593624" />
<connection from="268789926to268789939" to="268789939to330593646" />
<connection from="330593624to268789939" to="268789939to268789926" />
<connection from="330593624to268789939" to="268789939to330593624" />
<connection from="330593624to268789939" to="268789939to330593646" />
<connection from="330593646to268789939" to="268789939to268789926" />
<connection from="330593646to268789939" to="268789939to330593624" />
<connection from="330593646to268789939" to="268789939to330593646" />
<connection from="330576280to268789940" to="268789940to330576280" />
<connection from="330576280to268789940" to="268789940to330576289" />
<connection from="330576280to268789940" to="268789940to330576488" />
<connection from="330576289to268789940" to="268789940to330576280" />
<connection from="330576289to268789940" to="268789940to330576289" />
<connection from="330576289to268789940" to="268789940to330576488" />
<connection from="330576488to268789940" to="268789940to330576280" />
<connection from="330576488to268789940" to="268789940to330576289" />
<connection from="330576488to268789940" to="268789940to330576488" />
<connection from="268789877to268789942" to="268789942to268789877" />
<connection from="268789877to268789942" to="268789942to330576694" />
<connection from="268789877to268789942" to="268789942to3248845375" />
<connection from="330576694to268789942" to="268789942to268789877" />
<connection from="330576694to268789942" to="268789942to330576694" />
<connection from="330576694to268789942" to="268789942to3248845375" />
<connection from="3248845375to268789942" to="268789942to268789877" />
<connection from="3248845375to268789942" to="268789942to330576694" />
<connection from="3248845375to268789942" to="268789942to3248845375" />
<connection from="330576765to268789944" to="268789944to330576765" />
<connection from="330576765to268789944" to="268789944to330576568" />
<connection from="330576765to268789944" to="268789944to3371735062" />
<connection from="330576568to268789944" to="268789944to330576765" />
<connection from="330576568to268789944" to="268789944to330576568" />
<connection from="330576568to268789944" to="268789944to3371735062" />
<connection from="3371735062to268789944" to="268789944to330576765" />
<connection from="3371735062to268789944" to="268789944to330576568" />
<connection from="3371735062to268789944" to="268789944to3371735062" />
<connection from="268789961to268789950" to="268789950to268789961" />
<connection from="268789961to268789950" to="268789950to330593456" />
<connection from="268789961to268789950" to="268789950to330576503" />
<connection from="330593456to268789950" to="268789950to268789961" />
<connection from="330593456to268789950" to="268789950to330593456" />
<connection from="330593456to268789950" to="268789950to330576503" />
<connection from="330576503to268789950" to="268789950to268789961" />
<connection from="330576503to268789950" to="268789950to330593456" />
<connection from="330576503to268789950" to="268789950to330576503" />
<connection from="268789868to268789954" to="268789954to268789868" />
<connection from="268789868to268789954" to="268789954to330593447" />
<connection from="268789868to268789954" to="268789954to2164208484" />
<connection from="268789868to268789954" to="268789954to3248842476" />
<connection from="330593447to268789954" to="268789954to268789868" />
<connection from="330593447to268789954" to="268789954to330593447" />
<connection from="330593447to268789954" to="268789954to2164208484" />
<connection from="330593447to268789954" to="268789954to3248842476" />
<connection from="2164208484to268789954" to="268789954to268789868" />
<connection from="2164208484to268789954" to="268789954to330593447" />
<connection from="2164208484to268789954" to="268789954to2164208484" />
<connection from="2164208484to268789954" to="268789954to3248842476" />
<connection from="3248842476to268789954" to="268789954to268789868" />
<connection from="3248842476to268789954" to="268789954to330593447" />
<connection from="3248842476to268789954" to="268789954to2164208484" />
<connection from="3248842476to268789954" to="268789954to3248842476" />
<connection from="268789836to268789959" to="268789959to268789836" />
<connection from="268789836to268789959" to="268789959to268790945" />
<connection from="268789836to268789959" to="268789959to3263038277" />
<connection from="268789836to268789959" to="268789959to3248845375" />
<connection from="268790945to268789959" to="268789959to268789836" />
<connection from="268790945to268789959" to="268789959to268790945" />
<connection from="268790945to268789959" to="268789959to3263038277" />
<connection from="268790945to268789959" to="268789959to3248845375" />
<connection from="3263038277to268789959" to="268789959to268789836" />
<connection from="3263038277to268789959" to="268789959to268790945" />
<connection from="3263038277to268789959" to="268789959to3263038277" />
<connection from="3263038277to268789959" to="268789959to3248845375" />
<connection from="3248845375to268789959" to="268789959to268789836" />
<connection from="3248845375to268789959" to="268789959to268790945" />
<connection from="3248845375to268789959" to="268789959to3263038277" />
<connection from="3248845375to268789959" to="268789959to3248845375" />
<connection from="268789920to268789961" to="268789961to268789920" />
<connection from="268789920to268789961" to="268789961to268789950" />
<connection from="268789920to268789961" to="268789961to268789963" />
<connection from="268789920to268789961" to="268789961to330576035" />
<connection from="268789920to268789961" to="268789961to330576156" />
<connection from="268789950to268789961" to="268789961to268789920" />
<connection from="268789950to268789961" to="268789961to268789950" />
<connection from="268789950to268789961" to="268789961to268789963" />
<connection from="268789950to268789961" to="268789961to330576035" />
<connection from="268789950to268789961" to="268789961to330576156" />
<connection from="268789963to268789961" to="268789961to268789920" />
<connection from="268789963to268789961" to="268789961to268789950" />
<connection from="268789963to268789961" to="268789961to268789963" />
<connection from="268789963to268789961" to="268789961to330576035" />
<connection from="268789963to268789961" to="268789961to330576156" />
<connection from="330576035to268789961" to="268789961to268789920" />
<connection from="330576035to268789961" to="268789961to268789950" />
<connection from="330576035to268789961" to="268789961to268789963" />
<connection from="330576035to268789961" to="268789961to330576035" />
<connection from="330576035to268789961" to="268789961to330576156" />
<connection from="330576156to268789961" to="268789961to268789920" />
<connection from="330576156to268789961" to="268789961to268789950" />
<connection from="330576156to268789961" to="268789961to268789963" />
<connection from="330576156to268789961" to="268789961to330576035" />
<connection from="330576156to268789961" to="268789961to330576156" />
<connection from="268789882to268789963" to="268789963to268789882" />
<connection from="268789882to268789963" to="268789963to268789961" />
<connection from="268789882to268789963" to="268789963to330576035" />
<connection from="268789961to268789963" to="268789963to268789882" />
<connection from="268789961to268789963" to="268789963to268789961" />
<connection from="268789961to268789963" to="268789963to330576035" />
<connection from="330576035to268789963" to="268789963to268789882" />
<connection from="330576035to268789963" to="268789963to268789961" />
<connection from="330576035to268789963" to="268789963to330576035" />
<connection from="268789971to268789969" to="268789969to268789971" />
<connection from="268789971to268789969" to="268789969to3371735080" />
<connection from="268789971to268789969" to="268789969to268789976" />
<connection from="3371735080to268789969" to="268789969to268789971" />
<connection from="3371735080to268789969" to="268789969to3371735080" />
<connection from="3371735080to268789969" to="268789969to268789976" />
<connection from="268789976to268789969" to="268789969to268789971" />
<connection from="268789976to268789969" to="268789969to3371735080" />
<connection from="268789976to268789969" to="268789969to268789976" />
<connection from="268789969to268789971" to="268789971to268789969" />
<connection from="268789969to268789971" to="268789971to268789979" />
<connection from="268789969to268789971" to="268789971to268789973" />
<connection from="268789979to268789971" to="268789971to268789969" />
<connection from="268789979to268789971" to="268789971to268789979" />
<connection from="268789979to268789971" to="268789971to268789973" />
<connection from="268789973to268789971" to="268789971to268789969" />
<connection from="268789973to268789971" to="268789971to268789979" />
<connection from="268789973to268789971" to="268789971to268789973" />
<connection from="268789971to268789973" to="268789973to268789971" />
<connection from="268789971to268789973" to="268789973to268790030" />
<connection from="268789971to268789973" to="268789973to268789976" />
<connection from="268790030to268789973" to="268789973to268789971" />
<connection from="268790030to268789973" to="268789973to268790030" />
<connection from="268790030to268789973" to="268789973to268789976" />
<connection from="268789976to268789973" to="268789973to268789971" />
<connection from="268789976to268789973" to="268789973to268790030" />
<connection from="268789976to268789973" to="268789973to268789976" />
<connection from="268789973to268789976" to="268789976to268789973" />
<connection from="268789973to268789976" to="268789976to268789969" />
<connection from="268789973to268789976" to="268789976to330653141" />
<connection from="268789969to268789976" to="268789976to268789973" />
<connection from="268789969to268789976" to="268789976to268789969" />
<connection from="268789969to268789976" to="268789976to330653141" />
<connection from="330653141to268789976" to="268789976to268789973" />
<connection from="330653141to268789976" to="268789976to268789969" />
<connection from="330653141to268789976" to="268789976to330653141" />
<connection from="268789971to268789979" to="268789979to268789971" />
<connection from="268789971to268789979" to="268789979to330653324" />
<connection from="268789971to268789979" to="268789979to330774715" />
<connection from="330653324to268789979" to="268789979to268789971" />
<connection from="330653324to268789979" to="268789979to330653324" />
<connection from="330653324to268789979" to="268789979to330774715" />
<connection from="330774715to268789979" to="268789979to268789971" />
<connection from="330774715to268789979" to="268789979to330653324" />
<connection from="330774715to268789979" to="268789979to330774715" />
<connection from="268789874to268789985" to="268789985to268789874" />
<connection from="268789874to268789985" to="268789985to330612027" />
<connection from="268789874to268789985" to="268789985to330593601" />
<connection from="330612027to268789985" to="268789985to268789874" />
<connection from="330612027to268789985" to="268789985to330612027" />
<connection from="330612027to268789985" to="268789985to330593601" />
<connection from="330593601to268789985" to="268789985to268789874" />
<connection from="330593601to268789985" to="268789985to330612027" />
<connection from="330593601to268789985" to="268789985to330593601" />
<connection from="330593605to268789987" to="268789987to330593605" />
<connection from="330593605to268789987" to="268789987to330593595" />
<connection from="330593605to268789987" to="268789987to268789988" />
<connection from="330593605to268789987" to="268789987to330593618" />
<connection from="330593595to268789987" to="268789987to330593605" />
<connection from="330593595to268789987" to="268789987to330593595" />
<connection from="330593595to268789987" to="268789987to268789988" />
<connection from="330593595to268789987" to="268789987to330593618" />
<connection from="268789988to268789987" to="268789987to330593605" />
<connection from="268789988to268789987" to="268789987to330593595" />
<connection from="268789988to268789987" to="268789987to268789988" />
<connection from="268789988to268789987" to="268789987to330593618" />
<connection from="330593618to268789987" to="268789987to330593605" />
<connection from="330593618to268789987" to="268789987to330593595" />
<connection from="330593618to268789987" to="268789987to268789988" />
<connection from="330593618to268789987" to="268789987to330593618" />
<connection from="268789987to268789988" to="268789988to268789987" />
<connection from="268789987to268789988" to="268789988to330576364" />
<connection from="268789987to268789988" to="268789988to268789990" />
<connection from="330576364to268789988" to="268789988to268789987" />
<connection from="330576364to268789988" to="268789988to330576364" />
<connection from="330576364to268789988" to="268789988to268789990" />
<connection from="268789990to268789988" to="268789988to268789987" />
<connection from="268789990to268789988" to="268789988to330576364" />
<connection from="268789990to268789988" to="268789988to268789990" />
<connection from="268789988to268789990" to="268789990to268789988" />
<connection from="268789988to268789990" to="268789990to330612029" />
<connection from="268789988to268789990" to="268789990to330612032" />
<connection from="330612029to268789990" to="268789990to268789988" />
<connection from="330612029to268789990" to="268789990to330612029" />
<connection from="330612029to268789990" to="268789990to330612032" />
<connection from="330612032to268789990" to="268789990to268789988" />
<connection from="330612032to268789990" to="268789990to330612029" />
<connection from="330612032to268789990" to="268789990to330612032" />
<connection from="330612046to268789999" to="268789999to330612046" />
<connection from="330612046to268789999" to="268789999to268790000" />
<connection from="330612046to268789999" to="268789999to330612289" />
<connection from="268790000to268789999" to="268789999to330612046" />
<connection from="268790000to268789999" to="268789999to268790000" />
<connection from="268790000to268789999" to="268789999to330612289" />
<connection from="330612289to268789999" to="268789999to330612046" />
<connection from="330612289to268789999" to="268789999to268790000" />
<connection from="330612289to268789999" to="268789999to330612289" />
<connection from="268789999to268790000" to="268790000to268789999" />
<connection from="268789999to268790000" to="268790000to330612289" />
<connection from="268789999to268790000" to="268790000to3371735080" />
<connection from="330612289to268790000" to="268790000to268789999" />
<connection from="330612289to268790000" to="268790000to330612289" />
<connection from="330612289to268790000" to="268790000to3371735080" />
<connection from="3371735080to268790000" to="268790000to268789999" />
<connection from="3371735080to268790000" to="268790000to330612289" />
<connection from="3371735080to268790000" to="268790000to3371735080" />
<connection from="330653179to268790010" to="268790010to330653179" />
<connection from="330653179to268790010" to="268790010to268790016" />
<connection from="330653179to268790010" to="268790010to330653246" />
<connection from="268790016to268790010" to="268790010to330653179" />
<connection from="268790016to268790010" to="268790010to268790016" />
<connection from="268790016to268790010" to="268790010to330653246" />
<connection from="330653246to268790010" to="268790010to330653179" />
<connection from="330653246to268790010" to="268790010to268790016" />
<connection from="330653246to268790010" to="268790010to330653246" />
<connection from="268790010to268790016" to="268790016to268790010" />
<connection from="268790010to268790016" to="268790016to330653884" />
<connection from="268790010to268790016" to="268790016to672642687" />
<connection from="330653884to268790016" to="268790016to268790010" />
<connection from="330653884to268790016" to="268790016to330653884" />
<connection from="330653884to268790016" to="268790016to672642687" />
<connection from="672642687to268790016" to="268790016to268790010" />
<connection from="672642687to268790016" to="268790016to330653884" />
<connection from="672642687to268790016" to="268790016to672642687" />
<connection from="330648058to268790019" to="268790019to330648058" />
<connection from="330648058to268790019" to="268790019to330653928" />
<connection from="330648058to268790019" to="268790019to672642687" />
<connection from="330653928to268790019" to="268790019to330648058" />
<connection from="330653928to268790019" to="268790019to330653928" />
<connection from="330653928to268790019" to="268790019to672642687" />
<connection from="672642687to268790019" to="268790019to330648058" />
<connection from="672642687to268790019" to="268790019to330653928" />
<connection from="672642687to268790019" to="268790019to672642687" />
<connection from="268789973to268790030" to="268790030to268789973" />
<connection from="268789973to268790030" to="268790030to268790035" />
<connection from="268789973to268790030" to="268790030to330653290" />
<connection from="268790035to268790030" to="268790030to268789973" />
<connection from="268790035to268790030" to="268790030to268790035" />
<connection from="268790035to268790030" to="268790030to330653290" />
<connection from="330653290to268790030" to="268790030to268789973" />
<connection from="330653290to268790030" to="268790030to268790035" />
<connection from="330653290to268790030" to="268790030to330653290" />
<connection from="268790030to268790035" to="268790035to268790030" />
<connection from="268790030to268790035" to="268790035to330653353" />
<connection from="268790030to268790035" to="268790035to330653296" />
<connection from="330653353to268790035" to="268790035to268790030" />
<connection from="330653353to268790035" to="268790035to330653353" />
<connection from="330653353to268790035" to="268790035to330653296" />
<connection from="330653296to268790035" to="268790035to268790030" />
<connection from="330653296to268790035" to="268790035to330653353" />
<connection from="330653296to268790035" to="268790035to330653296" />
<connection from="268789959to268790945" to="268790945to268789959" />
<connection from="268789959to268790945" to="268790945to3263038277" />
<connection from="268789959to268790945" to="268790945to268789836" />
<connection from="3263038277to268790945" to="268790945to268789959" />
<connection from="3263038277to268790945" to="268790945to3263038277" />
<connection from="3263038277to268790945" to="268790945to268789836" />
<connection from="268789836to268790945" to="268790945to268789959" />
<connection from="268789836to268790945" to="268790945to3263038277" />
<connection from="268789836to268790945" to="268790945to268789836" />
<connection from="275675439to275675438" to="275675438to275675439" />
<connection from="275675439to275675438" to="275675438to330780202" />
<connection from="275675439to275675438" to="275675438to330653267" />
<connection from="330780202to275675438" to="275675438to275675439" />
<connection from="330780202to275675438" to="275675438to330780202" />
<connection from="330780202to275675438" to="275675438to330653267" />
<connection from="330653267to275675438" to="275675438to275675439" />
<connection from="330653267to275675438" to="275675438to330780202" />
<connection from="330653267to275675438" to="275675438to330653267" />
<connection from="275675438to275675439" to="275675439to275675438" />
<connection from="275675438to275675439" to="275675439to330653997" />