<connections>
<connection from="9767517212to2480551059" to="2480551059to9767517212" />
<connection from="9767517212to2480551059" to="2480551059to3151139990" />
<connection from="9767517212to2480551059" to="2480551059to3151139994" />
<connection from="3151139990to2480551059" to="2480551059to9767517212" />
<connection from="3151139990to2480551059" to="2480551059to3151139990" />
<connection from="3151139990to2480551059" to="2480551059to3151139994" />
<connection from="3151139994to2480551059" to="2480551059to9767517212" />
<connection from="3151139994to2480551059" to="2480551059to3151139990" />
<connection from="3151139994to2480551059" to="2480551059to3151139994" />
<connection from="9767801409to2696640085" to="2696640085to9767801409" />
<connection from="9767801409to2696640085" to="2696640085to2696640204" />
<connection from="9767801409to2696640085" to="2696640085to9767776320" />
<connection from="9767801409to2696640085" to="2696640085to2696640193" />
<connection from="2696640204to2696640085" to="2696640085to9767801409" />
<connection from="2696640204to2696640085" to="2696640085to2696640204" />
<connection from="2696640204to2696640085" to="2696640085to9767776320" />
<connection from="2696640204to2696640085" to="2696640085to2696640193" />
<connection from="9767776320to2696640085" to="2696640085to9767801409" />
<connection from="9767776320to2696640085" to="2696640085to2696640204" />
<connection from="9767776320to2696640085" to="2696640085to9767776320" />
<connection from="9767776320to2696640085" to="2696640085to2696640193" />
<connection from="2696640193to2696640085" to="2696640085to9767801409" />
<connection from="2696640193to2696640085" to="2696640085to2696640204" />
<connection from="2696640193to2696640085" to="2696640085to9767776320" />
<connection from="2696640193to2696640085" to="2696640085to2696640193" />
<connection from="3151265684to2696640091" to="2696640091to3151265684" />
<connection from="3151265684to2696640091" to="2696640091to3151288279" />
<connection from="3151265684to2696640091" to="2696640091to3150779096" />
<connection from="3151265684to2696640091" to="2696640091to9907507632" />
<connection from="3151288279to2696640091" to="2696640091to3151265684" />
<connection from="3151288279to2696640091" to="2696640091to3151288279" />
<connection from="3151288279to2696640091" to="2696640091to3150779096" />
<connection from="3151288279to2696640091" to="2696640091to9907507632" />
<connection from="3150779096to2696640091" to="2696640091to3151265684" />
<connection from="3150779096to2696640091" to="2696640091to3151288279" />
<connection from="3150779096to2696640091" to="2696640091to3150779096" />
<connection from="3150779096to2696640091" to="2696640091to9907507632" />
<connection from="9907507632to2696640091" to="2696640091to3151265684" />
<connection from="9907507632to2696640091" to="2696640091to3151288279" />
<connection from="9907507632to2696640091" to="2696640091to3150779096" />
<connection from="9907507632to2696640091" to="2696640091to9907507632" />
<connection from="2696640231to2696640097" to="2696640097to2696640231" />
<connection from="2696640231to2696640097" to="2696640097to9767504435" />
<connection from="2696640231to2696640097" to="2696640097to2696640229" />
<connection from="9767504435to2696640097" to="2696640097to2696640231" />
<connection from="9767504435to2696640097" to="2696640097to9767504435" />
<connection from="9767504435to2696640097" to="2696640097to2696640229" />
<connection from="2696640229to2696640097" to="2696640097to2696640231" />
<connection from="2696640229to2696640097" to="2696640097to9767504435" />
<connection from="2696640229to2696640097" to="2696640097to2696640229" />
<connection from="2696640241to2696640112" to="2696640112to2696640241" />
<connection from="2696640241to2696640112" to="2696640112to9907507283" />
<connection from="2696640241to2696640112" to="2696640112to3151276099" />
<connection from="9907507283to2696640112" to="2696640112to2696640241" />
<connection from="9907507283to2696640112" to="2696640112to9907507283" />
<connection from="9907507283to2696640112" to="2696640112to3151276099" />
<connection from="3151276099to2696640112" to="2696640112to2696640241" />
<connection from="3151276099to2696640112" to="2696640112to9907507283" />
<connection from="3151276099to2696640112" to="2696640112to3151276099" />
<connection from="3150780484to2696640120" to="2696640120to3150780484" />
<connection from="3150780484to2696640120" to="2696640120to3150782048" />
<connection from="3150780484to2696640120" to="2696640120to3150782050" />
<connection from="3150782048to2696640120" to="2696640120to3150780484" />
<connection from="3150782048to2696640120" to="2696640120to3150782048" />
<connection from="3150782048to2696640120" to="2696640120to3150782050" />
<connection from="3150782050to2696640120" to="2696640120to3150780484" />
<connection from="3150782050to2696640120" to="2696640120to3150782048" />
<connection from="3150782050to2696640120" to="2696640120to3150782050" />
<connection from="9907507621to2696640125" to="2696640125to9907507621" />
<connection from="9907507621to2696640125" to="2696640125to3150780484" />
<connection from="9907507621to2696640125" to="2696640125to9907507290" />
<connection from="3150780484to2696640125" to="2696640125to9907507621" />
<connection from="3150780484to2696640125" to="2696640125to3150780484" />
<connection from="3150780484to2696640125" to="2696640125to9907507290" />
<connection from="9907507290to2696640125" to="2696640125to9907507621" />
<connection from="9907507290to2696640125" to="2696640125to3150780484" />
<connection from="9907507290to2696640125" to="2696640125to9907507290" />
<connection from="7649981517to2696640149" to="2696640149to7649981517" />
<connection from="7649981517to2696640149" to="2696640149to7650047992" />
<connection from="7649981517to2696640149" to="2696640149to2696640159" />
<connection from="7650047992to2696640149" to="2696640149to7649981517" />
<connection from="7650047992to2696640149" to="2696640149to7650047992" />
<connection from="7650047992to2696640149" to="2696640149to2696640159" />
<connection from="2696640159to2696640149" to="2696640149to7649981517" />
<connection from="2696640159to2696640149" to="2696640149to7650047992" />
<connection from="2696640159to2696640149" to="2696640149to2696640159" />
<connection from="2696640149to2696640159" to="2696640159to2696640149" />
<connection from="2696640149to2696640159" to="2696640159to3151260042" />
<connection from="2696640149to2696640159" to="2696640159to7649981526" />
<connection from="2696640149to2696640159" to="2696640159to2696640193" />
<connection from="3151260042to2696640159" to="2696640159to2696640149" />
<connection from="3151260042to2696640159" to="2696640159to3151260042" />
<connection from="3151260042to2696640159" to="2696640159to7649981526" />
<connection from="3151260042to2696640159" to="2696640159to2696640193" />
<connection from="7649981526to2696640159" to="2696640159to2696640149" />
<connection from="7649981526to2696640159" to="2696640159to3151260042" />
<connection from="7649981526to2696640159" to="2696640159to7649981526" />
<connection from="7649981526to2696640159" to="2696640159to2696640193" />
<connection from="2696640193to2696640159" to="2696640159to2696640149" />
<connection from="2696640193to2696640159" to="2696640159to3151260042" />
<connection from="2696640193to2696640159" to="2696640159to7649981526" />
<connection from="2696640193to2696640159" to="2696640159to2696640193" />
<connection from="7649981526to2696640184" to="2696640184to7649981526" />
<connection from="7649981526to2696640184" to="2696640184to5496019084" />
<connection from="7649981526to2696640184" to="2696640184to5496019088" />
<connection from="5496019084to2696640184" to="2696640184to7649981526" />
<connection from="5496019084to2696640184" to="2696640184to5496019084" />
<connection from="5496019084to2696640184" to="2696640184to5496019088" />
<connection from="5496019088to2696640184" to="2696640184to7649981526" />
<connection from="5496019088to2696640184" to="2696640184to5496019084" />
<connection from="5496019088to2696640184" to="2696640184to5496019088" />
<connection from="2696640085to2696640193" to="2696640193to2696640085" />
<connection from="2696640085to2696640193" to="2696640193to2696640159" />
<connection from="2696640085to2696640193" to="2696640193to9767776343" />
<connection from="2696640159to2696640193" to="2696640193to2696640085" />
<connection from="2696640159to2696640193" to="2696640193to2696640159" />
<connection from="2696640159to2696640193" to="2696640193to9767776343" />
<connection from="9767776343to2696640193" to="2696640193to2696640085" />
<connection from="9767776343to2696640193" to="2696640193to2696640159" />
<connection from="9767776343to2696640193" to="2696640193to9767776343" />
<connection from="2696640198to2696640197" to="2696640197to2696640198" />
<connection from="2696640198to2696640197" to="2696640197to9767776343" />
<connection from="2696640198to2696640197" to="2696640197to2696640199" />
<connection from="9767776343to2696640197" to="2696640197to2696640198" />
<connection from="9767776343to2696640197" to="2696640197to9767776343" />
<connection from="9767776343to2696640197" to="2696640197to2696640199" />
<connection from="2696640199to2696640197" to="2696640197to2696640198" />
<connection from="2696640199to2696640197" to="2696640197to9767776343" />
<connection from="2696640199to2696640197" to="2696640197to2696640199" />
<connection from="2696640197to2696640198" to="2696640198to2696640197" />
<connection from="2696640197to2696640199" to="2696640199to2696640197" />
<connection from="2696640085to2696640204" to="2696640204to2696640085" />
<connection from="2696640085to2696640204" to="2696640204to3151213301" />
<connection from="2696640085to2696640204" to="2696640204to9767801406" />
<connection from="3151213301to2696640204" to="2696640204to2696640085" />
<connection from="3151213301to2696640204" to="2696640204to3151213301" />
<connection from="3151213301to2696640204" to="2696640204to9767801406" />
<connection from="9767801406to2696640204" to="2696640204to2696640085" />
<connection from="9767801406to2696640204" to="2696640204to3151213301" />
<connection from="9767801406to2696640204" to="2696640204to9767801406" />
<connection from="3151213301to2696640211" to="2696640211to3151213301" />
<connection from="3151139980to2696640227" to="2696640227to3151139980" />
<connection from="3151139980to2696640227" to="2696640227to9767801418" />
<connection from="9767801418to2696640227" to="2696640227to3151139980" />
<connection from="9767801418to2696640227" to="2696640227to9767801418" />
<connection from="2696640097to2696640229" to="2696640229to2696640097" />
<connection from="2696640097to2696640229" to="2696640229to2696640242" />
<connection from="2696640097to2696640229" to="2696640229to2696640231" />
<connection from="2696640242to2696640229" to="2696640229to2696640097" />
<connection from="2696640242to2696640229" to="2696640229to2696640242" />
<connection from="2696640242to2696640229" to="2696640229to2696640231" />
<connection from="2696640231to2696640229" to="2696640229to2696640097" />
<connection from="2696640231to2696640229" to="2696640229to2696640242" />
<connection from="2696640231to2696640229" to="2696640229to2696640231" />
<connection from="2696640097to2696640231" to="2696640231to2696640097" />
<connection from="2696640097to2696640231" to="2696640231to2696640229" />
<connection from="2696640097to2696640231" to="2696640231to2696640232" />
<connection from="2696640229to2696640231" to="2696640231to2696640097" />
<connection from="2696640229to2696640231" to="2696640231to2696640229" />
<connection from="2696640229to2696640231" to="2696640231to2696640232" />
<connection from="2696640232to2696640231" to="2696640231to2696640097" />
<connection from="2696640232to2696640231" to="2696640231to2696640229" />
<connection from="2696640232to2696640231" to="2696640231to2696640232" />
<connection from="2696640231to2696640232" to="2696640232to2696640231" />
<connection from="2696640231to2696640232" to="2696640232to3151341417" />
<connection from="2696640231to2696640232" to="2696640232to2696640240" />
<connection from="2696640231to2696640232" to="2696640232to9767801418" />
<connection from="3151341417to2696640232" to="2696640232to2696640231" />
<connection from="3151341417to2696640232" to="2696640232to3151341417" />
<connection from="3151341417to2696640232" to="2696640232to2696640240" />
<connection from="3151341417to2696640232" to="2696640232to9767801418" />
<connection from="2696640240to2696640232" to="2696640232to2696640231" />
<connection from="2696640240to2696640232" to="2696640232to3151341417" />
<connection from="2696640240to2696640232" to="2696640232to2696640240" />
<connection from="2696640240to2696640232" to="2696640232to9767801418" />
<connection from="9767801418to2696640232" to="2696640232to2696640231" />
<connection from="9767801418to2696640232" to="2696640232to3151341417" />
<connection from="9767801418to2696640232" to="2696640232to2696640240" />
<connection from="9767801418to2696640232" to="2696640232to9767801418" />
<connection from="3151341417to2696640233" to="2696640233to3151341417" />
<connection from="3151341417to2696640233" to="2696640233to9767801414" />
<connection from="3151341417to2696640233" to="2696640233to9907507624" />
<connection from="9767801414to2696640233" to="2696640233to3151341417" />
<connection from="9767801414to2696640233" to="2696640233to9767801414" />
<connection from="9767801414to2696640233" to="2696640233to9907507624" />
<connection from="9907507624to2696640233" to="2696640233to3151341417" />
<connection from="9907507624to2696640233" to="2696640233to9767801414" />
<connection from="9907507624to2696640233" to="2696640233to9907507624" />
<connection from="2696640232to2696640240" to="2696640240to2696640232" />
<connection from="2696640112to2696640241" to="2696640241to2696640112" />
<connection from="2696640112to2696640241" to="2696640241to2696640242" />
<connection from="2696640112to2696640241" to="2696640241to2932867527" />
<connection from="2696640112to2696640241" to="2696640241to9767801400" />
<connection from="2696640242to2696640241" to="2696640241to2696640112" />
<connection from="2696640242to2696640241" to="2696640241to2696640242" />
<connection from="2696640242to2696640241" to="2696640241to2932867527" />
<connection from="2696640242to2696640241" to="2696640241to9767801400" />
<connection from="2932867527to2696640241" to="2696640241to2696640112" />
<connection from="2932867527to2696640241" to="2696640241to2696640242" />
<connection from="2932867527to2696640241" to="2696640241to2932867527" />
<connection from="2932867527to2696640241" to="2696640241to9767801400" />
<connection from="9767801400to2696640241" to="2696640241to2696640112" />
<connection from="9767801400to2696640241" to="2696640241to2696640242" />
<connection from="9767801400to2696640241" to="2696640241to2932867527" />
<connection from="9767801400to2696640241" to="2696640241to9767801400" />
<connection from="2696640229to2696640242" to="2696640242to2696640229" />
<connection from="2696640229to2696640242" to="2696640242to2696640241" />
<connection from="2696640229to2696640242" to="2696640242to3150655662" />
<connection from="2696640241to2696640242" to="2696640242to2696640229" />
<connection from="2696640241to2696640242" to="2696640242to2696640241" />
<connection from="2696640241to2696640242" to="2696640242to3150655662" />
<connection from="3150655662to2696640242" to="2696640242to2696640229" />
<connection from="3150655662to2696640242" to="2696640242to2696640241" />
<connection from="3150655662to2696640242" to="2696640242to3150655662" />
<connection from="2696640252to2696640245" to="2696640245to2696640252" />
<connection from="2696640252to2696640245" to="2696640245to2932867527" />
<connection from="2696640252to2696640245" to="2696640245to3636987720" />
<connection from="2932867527to2696640245" to="2696640245to2696640252" />
<connection from="2932867527to2696640245" to="2696640245to2932867527" />
<connection from="2932867527to2696640245" to="2696640245to3636987720" />
<connection from="3636987720to2696640245" to="2696640245to2696640252" />
<connection from="3636987720to2696640245" to="2696640245to2932867527" />
<connection from="3636987720to2696640245" to="2696640245to3636987720" />
<connection from="2696640245to2696640252" to="2696640252to2696640245" />
<connection from="2696640245to2696640252" to="2696640252to3150629367" />
<connection from="2696640245to2696640252" to="2696640252to2696640253" />
<connection from="3150629367to2696640252" to="2696640252to2696640245" />
<connection from="3150629367to2696640252" to="2696640252to3150629367" />
<connection from="3150629367to2696640252" to="2696640252to2696640253" />
<connection from="2696640253to2696640252" to="2696640252to2696640245" />
<connection from="2696640253to2696640252" to="2696640252to3150629367" />
<connection from="2696640253to2696640252" to="2696640252to2696640253" />
<connection from="2696640252to2696640253" to="2696640253to2696640252" />
<connection from="2696640252to2696640253" to="2696640253to2932867527" />
<connection from="2696640252to2696640253" to="2696640253to9907507283" />
<connection from="2932867527to2696640253" to="2696640253to2696640252" />
<connection from="2932867527to2696640253" to="2696640253to2932867527" />
<connection from="2932867527to2696640253" to="2696640253to9907507283" />
<connection from="9907507283to2696640253" to="2696640253to2696640252" />
<connection from="9907507283to2696640253" to="2696640253to2932867527" />
<connection from="9907507283to2696640253" to="2696640253to9907507283" />
<connection from="2696640241to2932867527" to="2932867527to2696640241" />
<connection from="2696640241to2932867527" to="2932867527to2696640245" />
<connection from="2696640241to2932867527" to="2932867527to2696640253" />
<connection from="2696640241to2932867527" to="2932867527to3636987719" />
<connection from="2696640245to2932867527" to="2932867527to2696640241" />
<connection from="2696640245to2932867527" to="2932867527to2696640245" />
<connection from="2696640245to2932867527" to="2932867527to2696640253" />
<connection from="2696640245to2932867527" to="2932867527to3636987719" />
<connection from="2696640253to2932867527" to="2932867527to2696640241" />
<connection from="2696640253to2932867527" to="2932867527to2696640245" />
<connection from="2696640253to2932867527" to="2932867527to2696640253" />
<connection from="2696640253to2932867527" to="2932867527to3636987719" />
<connection from="3636987719to2932867527" to="2932867527to2696640241" />
<connection from="3636987719to2932867527" to="2932867527to2696640245" />
<connection from="3636987719to2932867527" to="2932867527to2696640253" />
<connection from="3636987719to2932867527" to="2932867527to3636987719" />
<connection from="9767801414to3150625362" to="3150625362to9767801414" />
<connection from="9767801414to3150625362" to="3150625362to3151139993" />
<connection from="9767801414to3150625362" to="3150625362to3151139986" />
<connection from="3151139993to3150625362" to="3150625362to9767801414" />
<connection from="3151139993to3150625362" to="3150625362to3151139993" />
<connection from="3151139993to3150625362" to="3150625362to3151139986" />
<connection from="3151139986to3150625362" to="3150625362to9767801414" />
<connection from="3151139986to3150625362" to="3150625362to3151139993" />
<connection from="3151139986to3150625362" to="3150625362to3151139986" />
<connection from="3151340939to3150625372" to="3150625372to3151340939" />
<connection from="3151340939to3150625372" to="3150625372to3150667040" />
<connection from="3151340939to3150625372" to="3150625372to3150667047" />
<connection from="3150667040to3150625372" to="3150625372to3151340939" />
<connection from="3150667040to3150625372" to="3150625372to3150667040" />
<connection from="3150667040to3150625372" to="3150625372to3150667047" />
<connection from="3150667047to3150625372" to="3150625372to3151340939" />
<connection from="3150667047to3150625372" to="3150625372to3150667040" />
<connection from="3150667047to3150625372" to="3150625372to3150667047" />
<connection from="2696640252to3150629367" to="3150629367to2696640252" />
<connection from="2696640252to3150629367" to="3150629367to3150782045" />
<connection from="2696640252to3150629367" to="3150629367to3150782055" />
<connection from="3150782045to3150629367" to="3150629367to2696640252" />
<connection from="3150782045to3150629367" to="3150629367to3150782045" />
<connection from="3150782045to3150629367" to="3150629367to3150782055" />
<connection from="3150782055to3150629367" to="3150629367to2696640252" />
<connection from="3150782055to3150629367" to="3150629367to3150782045" />
<connection from="3150782055to3150629367" to="3150629367to3150782055" />
<connection from="3151276099to3150629379" to="3150629379to3151276099" />
<connection from="3151276099to3150629379" to="3150629379to3150667037" />
<connection from="3151276099to3150629379" to="3150629379to3150667042" />
<connection from="3150667037to3150629379" to="3150629379to3151276099" />
<connection from="3150667037to3150629379" to="3150629379to3150667037" />
<connection from="3150667037to3150629379" to="3150629379to3150667042" />
<connection from="3150667042to3150629379" to="3150629379to3151276099" />
<connection from="3150667042to3150629379" to="3150629379to3150667037" />
<connection from="3150667042to3150629379" to="3150629379to3150667042" />
<connection from="3151265684to3150655661" to="3150655661to3151265684" />
<connection from="3151265684to3150655661" to="3150655661to3150667046" />
<connection from="3151265684to3150655661" to="3150655661to3150667036" />
<connection from="3150667046to3150655661" to="3150655661to3151265684" />
<connection from="3150667046to3150655661" to="3150655661to3150667046" />
<connection from="3150667046to3150655661" to="3150655661to3150667036" />
<connection from="3150667036to3150655661" to="3150655661to3151265684" />
<connection from="3150667036to3150655661" to="3150655661to3150667046" />
<connection from="3150667036to3150655661" to="3150655661to3150667036" />
<connection from="2696640242to3150655662" to="3150655662to2696640242" />
<connection from="2696640242to3150655662" to="3150655662to5601335996" />
<connection from="2696640242to3150655662" to="3150655662to3150667044" />
<connection from="5601335996to3150655662" to="3150655662to2696640242" />
<connection from="5601335996to3150655662" to="3150655662to5601335996" />
<connection from="5601335996to3150655662" to="3150655662to3150667044" />
<connection from="3150667044to3150655662" to="3150655662to2696640242" />
<connection from="3150667044to3150655662" to="3150655662to5601335996" />
<connection from="3150667044to3150655662" to="3150655662to3150667044" />
<connection from="3150667046to3150667036" to="3150667036to3150667046" />
<connection from="3150667046to3150667036" to="3150667036to3150655661" />
<connection from="3150667046to3150667036" to="3150667036to3150667040" />
<connection from="3150655661to3150667036" to="3150667036to3150667046" />
<connection from="3150655661to3150667036" to="3150667036to3150655661" />
<connection from="3150655661to3150667036" to="3150667036to3150667040" />
<connection from="3150667040to3150667036" to="3150667036to3150667046" />
<connection from="3150667040to3150667036" to="3150667036to3150655661" />
<connection from="3150667040to3150667036" to="3150667036to3150667040" />
<connection from="3150629379to3150667037" to="3150667037to3150629379" />
<connection from="3150629379to3150667037" to="3150667037to3150667044" />
<connection from="3150629379to3150667037" to="3150667037to3150667042" />
<connection from="3150667044to3150667037" to="3150667037to3150629379" />
<connection from="3150667044to3150667037" to="3150667037to3150667044" />
<connection from="3150667044to3150667037" to="3150667037to3150667042" />
<connection from="3150667042to3150667037" to="3150667037to3150629379" />
<connection from="3150667042to3150667037" to="3150667037to3150667044" />
<connection from="3150667042to3150667037" to="3150667037to3150667042" />
<connection from="3150625372to3150667040" to="3150667040to3150625372" />
<connection from="3150625372to3150667040" to="3150667040to3150667036" />
<connection from="3150625372to3150667040" to="3150667040to3150667047" />
<connection from="3150667036to3150667040" to="3150667040to3150625372" />
<connection from="3150667036to3150667040" to="3150667040to3150667036" />
<connection from="3150667036to3150667040" to="3150667040to3150667047" />
<connection from="3150667047to3150667040" to="3150667040to3150625372" />
<connection from="3150667047to3150667040" to="3150667040to3150667036" />
<connection from="3150667047to3150667040" to="3150667040to3150667047" />
<connection from="3150667037to3150667042" to="3150667042to3150667037" />
<connection from="3150667037to3150667042" to="3150667042to3150629379" />
<connection from="3150667037to3150667042" to="3150667042to3150667046" />
<connection from="3150629379to3150667042" to="3150667042to3150667037" />
<connection from="3150629379to3150667042" to="3150667042to3150629379" />
<connection from="3150629379to3150667042" to="3150667042to3150667046" />
<connection from="3150667046to3150667042" to="3150667042to3150667037" />
<connection from="3150667046to3150667042" to="3150667042to3150629379" />
<connection from="3150667046to3150667042" to="3150667042to3150667046" />
<connection from="3150667037to3150667044" to="3150667044to3150667037" />
<connection from="3150667037to3150667044" to="3150667044to5601335996" />
<connection from="3150667037to3150667044" to="3150667044to3150655662" />
<connection from="5601335996to3150667044" to="3150667044to3150667037" />
<connection from="5601335996to3150667044" to="3150667044to5601335996" />
<connection from="5601335996to3150667044" to="3150667044to3150655662" />
<connection from="3150655662to3150667044" to="3150667044to3150667037" />
<connection from="3150655662to3150667044" to="3150667044to5601335996" />
<connection from="3150655662to3150667044" to="3150667044to3150655662" />
<connection from="3150655661to3150667046" to="3150667046to3150655661" />
<connection from="3150655661to3150667046" to="3150667046to3150667036" />
<connection from="3150655661to3150667046" to="3150667046to3150667042" />
<connection from="3150667036to3150667046" to="3150667046to3150655661" />
<connection from="3150667036to3150667046" to="3150667046to3150667036" />
<connection from="3150667036to3150667046" to="3150667046to3150667042" />
<connection from="3150667042to3150667046" to="3150667046to3150655661" />
<connection from="3150667042to3150667046" to="3150667046to3150667036" />
<connection from="3150667042to3150667046" to="3150667046to3150667042" />
<connection from="3150667040to3150667047" to="3150667047to3150667040" />
<connection from="3150667040to3150667047" to="3150667047to3150625372" />
<connection from="3150667040to3150667047" to="3150667047to5601335996" />
<connection from="3150625372to3150667047" to="3150667047to3150667040" />
<connection from="3150625372to3150667047" to="3150667047to3150625372" />
<connection from="3150625372to3150667047" to="3150667047to5601335996" />
<connection from="5601335996to3150667047" to="3150667047to3150667040" />
<connection from="5601335996to3150667047" to="3150667047to3150625372" />
<connection from="5601335996to3150667047" to="3150667047to5601335996" />
<connection from="3150780484to3150779078" to="3150779078to3150780484" />
<connection from="3150780484to3150779078" to="3150779078to3150779081" />
<connection from="3150780484to3150779078" to="3150779078to9907507285" />
<connection from="3150780484to3150779078" to="3150779078to9907507288" />
<connection from="3150779081to3150779078" to="3150779078to3150780484" />
<connection from="3150779081to3150779078" to="3150779078to3150779081" />
<connection from="3150779081to3150779078" to="3150779078to9907507285" />
<connection from="3150779081to3150779078" to="3150779078to9907507288" />
<connection from="9907507285to3150779078" to="3150779078to3150780484" />
<connection from="9907507285to3150779078" to="3150779078to3150779081" />
<connection from="9907507285to3150779078" to="3150779078to9907507285" />
<connection from="9907507285to3150779078" to="3150779078to9907507288" />
<connection from="9907507288to3150779078" to="3150779078to3150780484" />
<connection from="9907507288to3150779078" to="3150779078to3150779081" />
<connection from="9907507288to3150779078" to="3150779078to9907507285" />
<connection from="9907507288to3150779078" to="3150779078to9907507288" />
<connection from="3150779078to3150779081" to="3150779081to3150779078" />
<connection from="3150779078to3150779081" to="3150779081to9907507285" />
<connection from="3150779078to3150779081" to="3150779081to3151297655" />
<connection from="9907507285to3150779081" to="3150779081to3150779078" />
<connection from="9907507285to3150779081" to="3150779081to9907507285" />
<connection from="9907507285to3150779081" to="3150779081to3151297655" />
<connection from="3151297655to3150779081" to="3150779081to3150779078" />
<connection from="3151297655to3150779081" to="3150779081to9907507285" />
<connection from="3151297655to3150779081" to="3150779081to3151297655" />
<connection from="3151265073to3150779090" to="3150779090to3151265073" />
<connection from="3151265073to3150779090" to="3150779090to3150779096" />
<connection from="3151265073to3150779090" to="3150779090to3151260037" />
<connection from="3151265073to3150779090" to="3150779090to3151260042" />
<connection from="3150779096to3150779090" to="3150779090to3151265073" />
<connection from="3150779096to3150779090" to="3150779090to3150779096" />
<connection from="3150779096to3150779090" to="3150779090to3151260037" />
<connection from="3150779096to3150779090" to="3150779090to3151260042" />
<connection from="3151260037to3150779090" to="3150779090to3151265073" />
<connection from="3151260037to3150779090" to="3150779090to3150779096" />
<connection from="3151260037to3150779090" to="3150779090to3151260037" />