<edges>
<edge from="5046281115" to="5046281241" id="5046281115to5046281241" numLanes="1" shape="-448.3847881849506,373.5892825340852 -361.91980943857925,318.75246777385473" />
<edge from="5046281115" to="5046281231" id="5046281115to5046281231" numLanes="1" shape="-448.3847881849506,373.5892825340852 -576.947448004561,469.4259435883723" />
<edge from="5046281117" to="5046281242" id="5046281117to5046281242" numLanes="1" shape="-285.6300786889624,243.24128352617845 -280.83467939012917,126.57136034220457 -285.7367836597841,105.266699582804 -291.56354908883804,89.70080974604934 -291.56354908883804,89.70080974604934" />
<edge from="5046281117" to="5046281241" id="5046281117to5046281241" numLanes="1" shape="-285.6300786889624,243.24128352617845 -291.732294009882,255.93135445006192 -302.6101449743146,269.01672390289605 -350.3384009259171,305.87463140441105 -361.91980943857925,318.75246777385473 -361.91980943857925,318.75246777385473" />
<edge from="5046281117" to="9504677030" id="5046281117to9504677030" numLanes="1" shape="-285.6300786889624,243.24128352617845 -227.04390745336423,239.77718194248155 -208.47678614832694,236.71461932035163 -117.31088250025641,213.81358351139352 -92.60061114118434,210.99271116917953 -75.78973603615304,212.01159980334342 -53.504854910832364,216.67370153963566 -45.170157128362916,217.32737564994022 -41.0084228933556,216.2259931708686 -37.26108385785483,213.3547761091031 -15.750458375376184,194.65878988290206 -10.051734704698902,190.68381926137954 0.868248614424374,183.05683847190812 38.05692572821863,162.19574632821605 85.7226073333295,137.58465424878523 91.12727547279792,131.34118991484866 93.25947571772849,126.99274114798754 94.18092958908528,120.40149556007236 94.9299455077271,111.3973065149039 94.33928677375661,103.638395850081 94.33928677375661,103.638395850081" />
<edge from="5046281224" to="5046281696" id="5046281224to5046281696" numLanes="1" shape="-411.4202835018514,-131.02614108938724 -406.7451770322514,-167.17144972039387 -391.5716146809282,-204.2329359082505 -370.3610878033214,-231.89629015466198 -354.9147606291808,-248.95233076112345 -335.37438567134086,-263.65519411396235 -335.37438567134086,-263.65519411396235" />
<edge from="5046281224" to="9156968689" id="5046281224to9156968689" numLanes="1" shape="-411.4202835018514,-131.02614108938724 -406.98001085728174,-115.80910676764324 -362.0540918841143,-45.03957901336253 -357.71919882053044,-38.424790776800364 -357.71919882053044,-38.424790776800364" />
<edge from="5046281224" to="9156964136" id="5046281224to9156964136" numLanes="1" shape="-411.4202835018514,-131.02614108938724 -430.2517444959376,-156.0400051646866 -476.45363279333105,-232.46189147327095 -476.45363279333105,-232.46189147327095" />
<edge from="5046281231" to="5046281115" id="5046281231to5046281115" numLanes="1" shape="-576.947448004561,469.4259435883723 -448.3847881849506,373.5892825340852" />
<edge from="5046281231" to="5046281934" id="5046281231to5046281934" numLanes="1" shape="-576.947448004561,469.4259435883723 -631.7844590436434,516.4325412334874" />
<edge from="5046281231" to="9156969777" id="5046281231to9156969777" numLanes="1" shape="-576.947448004561,469.4259435883723 -623.0353309473139,416.2988354456611" />
<edge from="5046281241" to="5046281115" id="5046281241to5046281115" numLanes="1" shape="-361.91980943857925,318.75246777385473 -448.3847881849506,373.5892825340852" />
<edge from="5046281241" to="5046281117" id="5046281241to5046281117" numLanes="1" shape="-361.91980943857925,318.75246777385473 -361.91980943857925,318.75246777385473 -350.3384009259171,305.87463140441105 -302.6101449743146,269.01672390289605 -291.732294009882,255.93135445006192 -285.6300786889624,243.24128352617845" />
<edge from="5046281241" to="9492611306" id="5046281241to9492611306" numLanes="1" shape="-361.91980943857925,318.75246777385473 -356.18184477306204,342.7774336198345 -359.00853476615157,362.0754429483786 -373.801072622824,379.4389374409802 -368.5494976650225,401.52828235924244 -358.1500503756688,416.90999309625477 -343.635590128717,427.12712357519194 -322.3823387309676,441.43630123883486 -310.6282853500452,451.65329853026196 -310.6282853500452,451.65329853026196" />
<edge from="5046281242" to="5046281117" id="5046281242to5046281117" numLanes="1" shape="-291.56354908883804,89.70080974604934 -291.56354908883804,89.70080974604934 -285.7367836597841,105.266699582804 -280.83467939012917,126.57136034220457 -285.6300786889624,243.24128352617845" />
<edge from="5046281242" to="5046281243" id="5046281242to5046281243" numLanes="1" shape="-291.56354908883804,89.70080974604934 -219.4314107390237,93.44628634629771" />
<edge from="5046281242" to="9947072295" id="5046281242to9947072295" numLanes="1" shape="-291.56354908883804,89.70080974604934 -299.89195484510856,67.44644758012146 -326.7763932974194,12.448991762008518 -326.7763932974194,12.448991762008518" />
<edge from="5046281243" to="5046281242" id="5046281243to5046281242" numLanes="1" shape="-219.4314107390237,93.44628634629771 -291.56354908883804,89.70080974604934" />
<edge from="5046281243" to="9949523574" id="5046281243to9949523574" numLanes="1" shape="-219.4314107390237,93.44628634629771 -111.6613589830813,99.00042964983732 -79.69625729549443,99.31752652628347 -72.78411458950723,36.09334457619116 -72.78411458950723,36.09334457619116" />
<edge from="5046281243" to="5046281246" id="5046281243to5046281246" numLanes="1" shape="-219.4314107390237,93.44628634629771 -215.23284297721693,24.176526642870158 -217.1433487700997,9.813051266595721 -227.18815695424564,1.7371366769075394 -227.18815695424564,1.7371366769075394" />
<edge from="5046281246" to="5046281243" id="5046281246to5046281243" numLanes="1" shape="-227.18815695424564,1.7371366769075394 -227.18815695424564,1.7371366769075394 -217.1433487700997,9.813051266595721 -215.23284297721693,24.176526642870158 -219.4314107390237,93.44628634629771" />
<edge from="5046281246" to="9947072294" id="5046281246to9947072294" numLanes="1" shape="-227.18815695424564,1.7371366769075394 -319.4450848278357,6.60741205746308" />
<edge from="5046281246" to="5046281250" id="5046281246to5046281250" numLanes="1" shape="-227.18815695424564,1.7371366769075394 -235.74577995057916,-6.33356514852494 -237.64761940011522,-18.493812758475542 -234.73292704258347,-31.038421749603003 -228.1017917356221,-41.383355252444744 -228.1017917356221,-41.383355252444744" />
<edge from="5046281250" to="5046281246" id="5046281250to5046281246" numLanes="1" shape="-228.1017917356221,-41.383355252444744 -228.1017917356221,-41.383355252444744 -234.73292704258347,-31.038421749603003 -237.64761940011522,-18.493812758475542 -235.74577995057916,-6.33356514852494 -227.18815695424564,1.7371366769075394" />
<edge from="5046281250" to="5046281253" id="5046281250to5046281253" numLanes="1" shape="-228.1017917356221,-41.383355252444744 -216.75437173002865,-77.54383454332128 -210.42199023574358,-83.58070745831355 -201.9641874320223,-87.92092057783157 -176.77702334104106,-91.34167270036414 -176.77702334104106,-91.34167270036414" />
<edge from="5046281250" to="5046281316" id="5046281250to5046281316" numLanes="1" shape="-228.1017917356221,-41.383355252444744 -230.20497818494914,-55.52463539550081 -237.69815787114203,-67.46354142855853 -253.04628136439715,-74.58850207692012 -268.1832162543433,-84.98041823366657 -297.29131196957314,-96.85612475732341 -297.29131196957314,-96.85612475732341" />
<edge from="5046281253" to="5046281250" id="5046281253to5046281250" numLanes="1" shape="-176.77702334104106,-91.34167270036414 -176.77702334104106,-91.34167270036414 -201.9641874320223,-87.92092057783157 -210.42199023574358,-83.58070745831355 -216.75437173002865,-77.54383454332128 -228.1017917356221,-41.383355252444744" />
<edge from="5046281253" to="5046281637" id="5046281253to5046281637" numLanes="1" shape="-176.77702334104106,-91.34167270036414 -159.61895840003854,-92.78214799519628 -140.24533269595122,-92.91379982745275 -129.30682330584386,-90.69824735308066 -119.93548511486733,-88.10008230432868 -119.93548511486733,-88.10008230432868" />
<edge from="5046281262" to="5046281719" id="5046281262to5046281719" numLanes="1" shape="82.51873129315209,-37.810927520971745 96.06280483363662,-140.0221351799555" />
<edge from="5046281262" to="9327109712" id="5046281262to9327109712" numLanes="1" shape="82.51873129315209,-37.810927520971745 84.61484234774252,-30.589361775200814 84.96407401311444,1.3177607958205044 84.96407401311444,1.3177607958205044" />
<edge from="5046281262" to="5046281293" id="5046281262to5046281293" numLanes="1" shape="82.51873129315209,-37.810927520971745 76.34515400754754,-43.20074953278527 65.3580877284985,-44.829468226991594 -55.05598806310445,-53.490670481231064 -64.30518866644707,-53.53180571598932 -64.30518866644707,-53.53180571598932" />
<edge from="5046281293" to="5046281262" id="5046281293to5046281262" numLanes="1" shape="-64.30518866644707,-53.53180571598932 -64.30518866644707,-53.53180571598932 -55.05598806310445,-53.490670481231064 65.3580877284985,-44.829468226991594 76.34515400754754,-43.20074953278527 82.51873129315209,-37.810927520971745" />
<edge from="5046281293" to="5046281637" id="5046281293to5046281637" numLanes="1" shape="-64.30518866644707,-53.53180571598932 -78.07528276456287,-55.71412661159411 -87.12238162639551,-58.756459740456194 -98.10475441627204,-66.95056280121207 -110.40343030000804,-83.48750312346965 -119.93548511486733,-88.10008230432868 -119.93548511486733,-88.10008230432868" />
<edge from="5046281293" to="9949523574" id="5046281293to9949523574" numLanes="1" shape="-64.30518866644707,-53.53180571598932 -70.95523258013418,19.379028480499983 -72.78411458950723,36.09334457619116 -72.78411458950723,36.09334457619116" />
<edge from="5046281316" to="5046281250" id="5046281316to5046281250" numLanes="1" shape="-297.29131196957314,-96.85612475732341 -297.29131196957314,-96.85612475732341 -268.1832162543433,-84.98041823366657 -253.04628136439715,-74.58850207692012 -237.69815787114203,-67.46354142855853 -230.20497818494914,-55.52463539550081 -228.1017917356221,-41.383355252444744" />
<edge from="5046281316" to="9947072294" id="5046281316to9947072294" numLanes="1" shape="-297.29131196957314,-96.85612475732341 -319.6023014926468,-71.87893768586218 -320.2668729695142,-62.18861397076398 -319.94808261754224,-56.26653726072982 -325.6009142980911,-48.40547591727227 -329.72828356554965,-38.59075545845553 -329.7016468703514,-31.84822197398171 -323.74662722763605,-22.516196753829718 -318.9078785008751,-14.696577050257474 -318.86576592875645,-4.034738197457045 -319.4450848278357,6.60741205746308 -319.4450848278357,6.60741205746308" />
<edge from="5046281316" to="5046281674" id="5046281316to5046281674" numLanes="1" shape="-297.29131196957314,-96.85612475732341 -247.29000638710568,-172.44034221116453 -233.82530906813918,-188.32591228652745 -219.20738370908657,-201.0827380437404 -202.26362981664715,-207.82573696039617 -184.30752989678876,-210.99656106811017 -165.49247394799022,-213.3293005512096 -165.49247394799022,-213.3293005512096" />
<edge from="5046281635" to="5046281637" id="5046281635to5046281637" numLanes="1" shape="-72.86905118793948,-197.89459326630458 -70.16524467803538,-191.58331390889362 -71.67700447916286,-182.28825509734452 -112.09708863752894,-104.8934120554477 -119.93548511486733,-88.10008230432868 -119.93548511486733,-88.10008230432868" />
<edge from="5046281635" to="5046281674" id="5046281635to5046281674" numLanes="1" shape="-72.86905118793948,-197.89459326630458 -80.91125187691068,-201.8155439402908 -136.9774629722233,-212.41192631423473 -148.10367254709126,-213.12099133525044 -165.49247394799022,-213.3293005512096 -165.49247394799022,-213.3293005512096" />
<edge from="5046281635" to="9504677033" id="5046281635to9504677033" numLanes="1" shape="-72.86905118793948,-197.89459326630458 -62.69552128377836,-211.4973673853092 -52.93437341117533,-234.13297788286582 -37.67788954672869,-284.0375033947639 -27.316872560768388,-327.72265100153163 -25.881887253839523,-341.01426535472274 -25.676053242234048,-348.2559310020879 -25.676053242234048,-348.2559310020879" />
<edge from="5046281637" to="5046281253" id="5046281637to5046281253" numLanes="1" shape="-119.93548511486733,-88.10008230432868 -119.93548511486733,-88.10008230432868 -129.30682330584386,-90.69824735308066 -140.24533269595122,-92.91379982745275 -159.61895840003854,-92.78214799519628 -176.77702334104106,-91.34167270036414" />
<edge from="5046281637" to="5046281293" id="5046281637to5046281293" numLanes="1" shape="-119.93548511486733,-88.10008230432868 -119.93548511486733,-88.10008230432868 -110.40343030000804,-83.48750312346965 -98.10475441627204,-66.95056280121207 -87.12238162639551,-58.756459740456194 -78.07528276456287,-55.71412661159411 -64.30518866644707,-53.53180571598932" />
<edge from="5046281637" to="5046281635" id="5046281637to5046281635" numLanes="1" shape="-119.93548511486733,-88.10008230432868 -119.93548511486733,-88.10008230432868 -112.09708863752894,-104.8934120554477 -71.67700447916286,-182.28825509734452 -70.16524467803538,-191.58331390889362 -72.86905118793948,-197.89459326630458" />
<edge from="5046281663" to="5046281665" id="5046281663to5046281665" numLanes="1" shape="-73.27246339805424,-367.8317374996841 -47.46060643013334,-362.762754003983 -37.56478234130191,-358.93764116754755 -32.00938129477436,-355.3722581653856 -32.00938129477436,-355.3722581653856" />
<edge from="5046281663" to="9157237011" id="5046281663to9157237011" numLanes="1" shape="-73.27246339805424,-367.8317374996841 -118.51170147280209,-370.79812288144603 -150.28446639882168,-368.56943707261235 -179.72252632584423,-365.82951170392334 -199.08085482136812,-361.72315392363816 -199.08085482136812,-361.72315392363816" />
<edge from="5046281663" to="5046281677" id="5046281663to5046281677" numLanes="1" shape="-73.27246339805424,-367.8317374996841 -73.90398041461594,-313.4231778108515 -75.59157752024475,-309.9843305479735 -78.15096478984924,-308.0588703956455 -83.64027193345828,-305.18079639039934 -149.44376260822173,-294.75806260528043 -154.63869831478223,-292.1468398529105 -158.3829220822081,-288.45630685659125 -163.35405381419696,-278.1622371315025 -163.35405381419696,-278.1622371315025" />
<edge from="5046281665" to="5046281663" id="5046281665to5046281663" numLanes="1" shape="-32.00938129477436,-355.3722581653856 -32.00938129477436,-355.3722581653856 -37.56478234130191,-358.93764116754755 -47.46060643013334,-362.762754003983 -73.27246339805424,-367.8317374996841" />
<edge from="5046281665" to="9504677033" id="5046281665to9504677033" numLanes="1" shape="-32.00938129477436,-355.3722581653856 -25.676053242234048,-348.2559310020879" />
<edge from="5046281665" to="9503979833" id="5046281665to9503979833" numLanes="1" shape="-32.00938129477436,-355.3722581653856 -29.188068954565097,-368.4146719397977 -26.132351102482062,-391.79892330244184 -18.30438480974408,-445.0289338300936 -16.815975527453702,-455.0989061226137 -15.1000578776584,-479.861844424624 -14.608074054936878,-523.1760499314405 -14.608074054936878,-523.1760499314405" />
<edge from="5046281674" to="5046281316" id="5046281674to5046281316" numLanes="1" shape="-165.49247394799022,-213.3293005512096 -165.49247394799022,-213.3293005512096 -184.30752989678876,-210.99656106811017 -202.26362981664715,-207.82573696039617 -219.20738370908657,-201.0827380437404 -233.82530906813918,-188.32591228652745 -247.29000638710568,-172.44034221116453 -297.29131196957314,-96.85612475732341" />
<edge from="5046281674" to="5046281635" id="5046281674to5046281635" numLanes="1" shape="-165.49247394799022,-213.3293005512096 -165.49247394799022,-213.3293005512096 -148.10367254709126,-213.12099133525044 -136.9774629722233,-212.41192631423473 -80.91125187691068,-201.8155439402908 -72.86905118793948,-197.89459326630458" />
<edge from="5046281674" to="5046281691" id="5046281674to5046281691" numLanes="1" shape="-165.49247394799022,-213.3293005512096 -178.10689034778625,-250.4914271919988" />
<edge from="5046281677" to="5046281663" id="5046281677to5046281663" numLanes="1" shape="-163.35405381419696,-278.1622371315025 -163.35405381419696,-278.1622371315025 -158.3829220822081,-288.45630685659125 -154.63869831478223,-292.1468398529105 -149.44376260822173,-294.75806260528043 -83.64027193345828,-305.18079639039934 -78.15096478984924,-308.0588703956455 -75.59157752024475,-309.9843305479735 -73.90398041461594,-313.4231778108515 -73.27246339805424,-367.8317374996841" />
<edge from="5046281677" to="5046281678" id="5046281677to5046281678" numLanes="1" shape="-163.35405381419696,-278.1622371315025 -152.3786632285337,-240.75006857328117" />
<edge from="5046281677" to="5046281691" id="5046281677to5046281691" numLanes="1" shape="-163.35405381419696,-278.1622371315025 -181.84912763582543,-272.1549754049629 -183.08418458688539,-267.6218042471446 -178.10689034778625,-250.4914271919988 -178.10689034778625,-250.4914271919988" />
<edge from="5046281678" to="5046281677" id="5046281678to5046281677" numLanes="1" shape="-152.3786632285337,-240.75006857328117 -163.35405381419696,-278.1622371315025" />
<edge from="5046281691" to="5046281674" id="5046281691to5046281674" numLanes="1" shape="-178.10689034778625,-250.4914271919988 -165.49247394799022,-213.3293005512096" />
<edge from="5046281691" to="5046281677" id="5046281691to5046281677" numLanes="1" shape="-178.10689034778625,-250.4914271919988 -178.10689034778625,-250.4914271919988 -183.08418458688539,-267.6218042471446 -181.84912763582543,-272.1549754049629 -163.35405381419696,-278.1622371315025" />
<edge from="5046281691" to="9504677035" id="5046281691to9504677035" numLanes="1" shape="-178.10689034778625,-250.4914271919988 -202.455247148755,-243.51998614147305 -205.58367724966956,-241.24903855845332 -214.0800074558938,-228.5717206983827 -214.0800074558938,-228.5717206983827" />
<edge from="5046281696" to="5046281224" id="5046281696to5046281224" numLanes="1" shape="-335.37438567134086,-263.65519411396235 -335.37438567134086,-263.65519411396235 -354.9147606291808,-248.95233076112345 -370.3610878033214,-231.89629015466198 -391.5716146809282,-204.2329359082505 -406.7451770322514,-167.17144972039387 -411.4202835018514,-131.02614108938724" />
<edge from="5046281696" to="9156964135" id="5046281696to9156964135" numLanes="1" shape="-335.37438567134086,-263.65519411396235 -372.1657016358804,-312.19186316337436" />
<edge from="5046281696" to="9157237011" id="5046281696to9157237011" numLanes="1" shape="-335.37438567134086,-263.65519411396235 -303.70691668085055,-287.3296688152477 -277.99818577361293,-308.37871783738956 -256.1865478322143,-328.3605385757983 -242.00065257266397,-339.63207678264007 -227.91582641139394,-348.124217630364 -211.99685249471804,-356.4685712470673 -199.08085482136812,-361.72315392363816 -199.08085482136812,-361.72315392363816" />
<edge from="5046281698" to="5046281706" id="5046281698to5046281706" numLanes="1" shape="-447.87812456680695,-455.6135129746981 -439.99602741538547,-435.5828729397617" />
<edge from="5046281698" to="9156964084" id="5046281698to9156964084" numLanes="1" shape="-447.87812456680695,-455.6135129746981 -462.49421120475745,-419.21848789881915" />
<edge from="5046281698" to="9156968716" id="5046281698to9156968716" numLanes="1" shape="-447.87812456680695,-455.6135129746981 -458.7070436157519,-460.9403997398913 -474.9437741636648,-463.3893787637353 -531.4231086132932,-457.087279164698 -544.8530879520113,-455.58365253545344 -526.2849292020546,-409.76524891518056 -516.5201462722616,-400.49268660880625 -503.88963247532956,-398.0848265932873 -503.88963247532956,-398.0848265932873" />
<edge from="5046281698" to="9156964086" id="5046281698to9156964086" numLanes="1" shape="-447.87812456680695,-455.6135129746981 -443.05932290136116,-496.64198667835444 -442.25944565294776,-500.4427290321328 -442.25944565294776,-500.4427290321328" />
<edge from="5046281706" to="5046281698" id="5046281706to5046281698" numLanes="1" shape="-439.99602741538547,-435.5828729397617 -447.87812456680695,-455.6135129746981" />
<edge from="5046281706" to="9156964084" id="5046281706to9156964084" numLanes="1" shape="-439.99602741538547,-435.5828729397617 -462.49421120475745,-419.21848789881915" />
<edge from="5046281706" to="9156964133" id="5046281706to9156964133" numLanes="1" shape="-439.99602741538547,-435.5828729397617 -420.19758023059694,-385.09697186993435 -396.0842429064214,-348.50089045008644 -396.0842429064214,-348.50089045008644" />
<edge from="5046281719" to="5046281262" id="5046281719to5046281262" numLanes="1" shape="96.06280483363662,-140.0221351799555 82.51873129315209,-37.810927520971745" />
<edge from="5046281719" to="5046281720" id="5046281719to5046281720" numLanes="1" shape="96.06280483363662,-140.0221351799555 84.14999782934319,-278.9910134309903" />
<edge from="5046281719" to="9503937179" id="5046281719to9503937179" numLanes="1" shape="96.06280483363662,-140.0221351799555 186.39856720890384,-138.91459448589012 211.65606666111853,-140.02096680598333 211.65606666111853,-140.02096680598333" />
<edge from="5046281720" to="5046281719" id="5046281720to5046281719" numLanes="1" shape="84.14999782934319,-278.9910134309903 96.06280483363662,-140.0221351799555" />
<edge from="5046281720" to="9504677033" id="5046281720to9504677033" numLanes="1" shape="84.14999782934319,-278.9910134309903 74.36648364260327,-282.7723617563024 -20.105253595102113,-343.3620064621791 -25.676053242234048,-348.2559310020879 -25.676053242234048,-348.2559310020879" />
<edge from="5046281720" to="9445315205" id="5046281720to9445315205" numLanes="1" shape="84.14999782934319,-278.9910134309903 95.12171347712865,-278.7240288509056 194.89745543617755,-283.74282695446163 204.62784954352537,-285.7184444181621 220.05848088121274,-291.34785508643836 220.05848088121274,-291.34785508643836" />
<edge from="5046281923" to="9327109707" id="5046281923to9327109707" numLanes="1" shape="363.96823135222076,-145.8530359454453 387.1417448441498,-130.22171771666035" />
<edge from="5046281923" to="9327109713" id="5046281923to9327109713" numLanes="1" shape="363.96823135222076,-145.8530359454453 386.72291924775345,-143.58355558663607" />
<edge from="5046281923" to="9503937179" id="5046281923to9503937179" numLanes="1" shape="363.96823135222076,-145.8530359454453 304.3227466800017,-141.9554401752539 211.65606666111853,-140.02096680598333 211.65606666111853,-140.02096680598333" />
<edge from="5046281932" to="5046281935" id="5046281932to5046281935" numLanes="1" shape="-664.8069448675378,585.5734774135053 -611.1629608044168,543.4651568122208" />
<edge from="5046281933" to="5046281935" id="5046281933to5046281935" numLanes="1" shape="-565.0936835754546,507.2993681062944 -611.1629608044168,543.4651568122208" />
<edge from="5046281934" to="5046281231" id="5046281934to5046281231" numLanes="1" shape="-631.7844590436434,516.4325412334874 -576.947448004561,469.4259435883723" />
<edge from="5046281934" to="5046281935" id="5046281934to5046281935" numLanes="1" shape="-631.7844590436434,516.4325412334874 -611.1629608044168,543.4651568122208" />
<edge from="5046281935" to="5046281932" id="5046281935to5046281932" numLanes="1" shape="-611.1629608044168,543.4651568122208 -664.8069448675378,585.5734774135053" />
<edge from="5046281935" to="5046281933" id="5046281935to5046281933" numLanes="1" shape="-611.1629608044168,543.4651568122208 -565.0936835754546,507.2993681062944" />
<edge from="5046281935" to="5046281934" id="5046281935to5046281934" numLanes="1" shape="-611.1629608044168,543.4651568122208 -631.7844590436434,516.4325412334874" />
<edge from="5268161701" to="9445315190" id="5268161701to9445315190" numLanes="1" shape="8.881348704686388,-583.0108829718083 1.3825238972785883,-575.6187964375131" />
<edge from="5268161701" to="9503951322" id="5268161701to9503951322" numLanes="1" shape="8.881348704686388,-583.0108829718083 8.881348704686388,-583.0108829718083 15.207431256771088,-567.3804160021245 22.704888322623447,-551.7656159945764 30.63469362159958,-537.5918226866052 39.86664057371672,-523.8549291216768 50.27512377506355,-508.81619212031364 59.21664884942584,-496.39567269105464 75.92944450094365,-471.2400224022567 92.7927198347752,-446.6606688722968 105.82916425995063,-429.0303601291962 120.03868900734233,-410.97284306725487 133.66192359983688,-394.3523291046731 148.5906563345343,-377.30512219900265 161.92176238825778,-362.43275785120204 174.06556207069661,-349.00611837534234 188.11987981572747,-334.1254904861562 203.19387107290095,-318.9720485275611 211.52853969478747,-310.590212949086 220.01538499537855,-302.3639710377902 229.0067224345985,-295.3686499390751 237.77392300067004,-290.9853544686921 244.18756244383985,-289.338617883157 252.94228779920377,-288.14389757812023 268.0291299879318,-287.91501376684755 290.62092826893786,-288.2911649639718 352.5516993839992,-291.4337784680538 395.8378278845339,-292.90910935169086 464.331932644709,-295.2021785075776 478.48984869697597,-295.4787519588135" />
<edge from="9156964084" to="5046281698" id="9156964084to5046281698" numLanes="1" shape="-462.49421120475745,-419.21848789881915 -447.87812456680695,-455.6135129746981" />
<edge from="9156964084" to="5046281706" id="9156964084to5046281706" numLanes="1" shape="-462.49421120475745,-419.21848789881915 -439.99602741538547,-435.5828729397617" />
<edge from="9156964084" to="9156968716" id="9156964084to9156968716" numLanes="1" shape="-462.49421120475745,-419.21848789881915 -484.79700756591046,-402.4009023238905 -498.11973674350884,-396.97837689192966 -503.88963247532956,-398.0848265932873 -503.88963247532956,-398.0848265932873" />
<edge from="9156964086" to="5046281698" id="9156964086to5046281698" numLanes="1" shape="-442.25944565294776,-500.4427290321328 -442.25944565294776,-500.4427290321328 -443.05932290136116,-496.64198667835444 -447.87812456680695,-455.6135129746981" />
<edge from="9156964086" to="9503979830" id="9156964086to9503979830" numLanes="1" shape="-442.25944565294776,-500.4427290321328 -434.886733904772,-501.0254876250401 -376.48182410473237,-502.14221212873235 -369.38624104036717,-503.25528099155053 -364.20088280987693,-505.72261004615575 -359.84114087879425,-508.3195343250409 -339.8982118025888,-526.9322742251679 -313.5480984938913,-548.1721231946722 -309.5915054160869,-549.6824181689881 -305.9067087529693,-550.3723369408399 -300.78030240006046,-549.7172046555206 -294.90679600823205,-548.1792876706459 -258.09264206769876,-535.2489396217279 -163.1926203907933,-498.4001079206355 -157.20179775595898,-498.10262226033956 -151.95688747259555,-498.3889944255352 -147.17207531596068,-501.69611282180995 -132.41315808158834,-527.9054420022294 -129.17569762672065,-530.9628872093745 -129.17569762672065,-530.9628872093745" />
<edge from="9156964132" to="9156964133" id="9156964132to9156964133" numLanes="1" shape="-502.3223092745757,-280.1668324377388 -396.0842429064214,-348.50089045008644" />
<edge from="9156964132" to="9156964140" id="9156964132to9156964140" numLanes="1" shape="-502.3223092745757,-280.1668324377388 -524.3261262761662,-316.48324162792414" />
<edge from="9156964132" to="9156964134" id="9156964132to9156964134" numLanes="1" shape="-502.3223092745757,-280.1668324377388 -483.067313936539,-246.0206199386157" />
<edge from="9156964133" to="5046281706" id="9156964133to5046281706" numLanes="1" shape="-396.0842429064214,-348.50089045008644 -396.0842429064214,-348.50089045008644 -420.19758023059694,-385.09697186993435 -439.99602741538547,-435.5828729397617" />
<edge from="9156964133" to="9156964132" id="9156964133to9156964132" numLanes="1" shape="-396.0842429064214,-348.50089045008644 -502.3223092745757,-280.1668324377388" />
<edge from="9156964133" to="9156964135" id="9156964133to9156964135" numLanes="1" shape="-396.0842429064214,-348.50089045008644 -372.1657016358804,-312.19186316337436" />
<edge from="9156964134" to="9156964132" id="9156964134to9156964132" numLanes="1" shape="-483.067313936539,-246.0206199386157 -502.3223092745757,-280.1668324377388" />
<edge from="9156964134" to="9156964135" id="9156964134to9156964135" numLanes="1" shape="-483.067313936539,-246.0206199386157 -372.1657016358804,-312.19186316337436" />
<edge from="9156964134" to="9156964136" id="9156964134to9156964136" numLanes="1" shape="-483.067313936539,-246.0206199386157 -476.45363279333105,-232.46189147327095" />
<edge from="9156964135" to="5046281696" id="9156964135to5046281696" numLanes="1" shape="-372.1657016358804,-312.19186316337436 -335.37438567134086,-263.65519411396235" />
<edge from="9156964135" to="9156964133" id="9156964135to9156964133" numLanes="1" shape="-372.1657016358804,-312.19186316337436 -396.0842429064214,-348.50089045008644" />
<edge from="9156964135" to="9156964134" id="9156964135to9156964134" numLanes="1" shape="-372.1657016358804,-312.19186316337436 -483.067313936539,-246.0206199386157" />
<edge from="9156964136" to="5046281224" id="9156964136to5046281224" numLanes="1" shape="-476.45363279333105,-232.46189147327095 -476.45363279333105,-232.46189147327095 -430.2517444959376,-156.0400051646866 -411.4202835018514,-131.02614108938724" />
<edge from="9156964136" to="9156964134" id="9156964136to9156964134" numLanes="1" shape="-476.45363279333105,-232.46189147327095 -483.067313936539,-246.0206199386157" />
<edge from="9156964136" to="9156964139" id="9156964136to9156964139" numLanes="1" shape="-476.45363279333105,-232.46189147327095 -489.52661913936026,-223.17634997097775 -533.1550498812576,-200.18477263581008 -533.1550498812576,-200.18477263581008" />
<edge from="9156964139" to="9156964136" id="9156964139to9156964136" numLanes="1" shape="-533.1550498812576,-200.18477263581008 -533.1550498812576,-200.18477263581008 -489.52661913936026,-223.17634997097775 -476.45363279333105,-232.46189147327095" />
<edge from="9156964139" to="9897304140" id="9156964139to9897304140" numLanes="1" shape="-533.1550498812576,-200.18477263581008 -541.5488106652629,-195.11388998199254" />
<edge from="9156964139" to="9156968690" id="9156964139to9156968690" numLanes="1" shape="-533.1550498812576,-200.18477263581008 -505.33049046073575,-142.1577766155824" />