<nodes>
<node id="5414306406" x="1031.2029613946215" y="-226.29080541152507" />
<node id="5414306521" x="427.38538268051343" y="152.76508463313803" />
<node id="5414306522" x="384.4254681696766" y="179.39725764049217" />
<node id="5414306523" x="385.01111204578774" y="217.40413071447983" />
<node id="5434699621" x="63.733342899533454" y="152.87040613405406" />
<node id="5871442320" x="-704.550683836278" y="696.0247761183418" />
<node id="5871442321" x="-570.7167804685305" y="678.1562596941367" />
<node id="5871442326" x="-843.8168822785374" y="398.92988064698875" />
<node id="5871442338" x="-799.348590173584" y="-86.692019617185" />
<node id="5871442340" x="-559.7467255988158" y="-108.10093748802319" />
<node id="5871442343" x="-371.9487998148543" y="-35.257212901022285" />
<node id="5871442347" x="-109.17458019446349" y="86.56659364467487" />
<node id="5871442348" x="-118.68441717629321" y="127.36634973715991" />
<node id="5871442350" x="-104.24872842768673" y="159.9269697535783" />
<node id="5871442351" x="-85.66321247076849" y="148.1000936483033" />
<node id="5871442352" x="-90.18054572993424" y="125.73222590889782" />
<node id="5871442354" x="33.59243512555258" y="123.66754886321723" />
<node id="5871442356" x="22.289101124333683" y="98.45384212816134" />
<node id="5871442358" x="29.259951900457963" y="89.11100377095863" />
<node id="5871442359" x="47.6977709744242" y="86.24043778749183" />
<node id="5871442360" x="58.870762105390895" y="114.76488898135722" />
<node id="5871442377" x="584.1476791921887" y="-591.845841796603" />
<node id="5871442378" x="1029.360644508677" y="-596.406093491707" />
<node id="5871442379" x="651.0944379553548" y="-514.3526904461905" />
<node id="5871442380" x="650.4198550703586" y="-596.4251029682346" />
<node id="5871442381" x="769.2343474662048" y="-637.6184190809727" />
<node id="5871442382" x="770.8797152842744" y="-567.4752428745851" />
<node id="5871442383" x="770.0124517828808" y="-596.3256147648208" />
<node id="5871444985" x="873.7049669357366" y="-99.31551768211648" />
<node id="5871444989" x="815.4857220921549" y="144.58048336207867" />
<node id="5871444993" x="716.8631889636745" y="27.080545825418085" />
<node id="5871444994" x="359.45629465195816" y="195.60262815561146" />
<node id="5871444995" x="344.86032007070025" y="176.89050278626382" />
<node id="5871444996" x="349.3468070451054" y="164.04764125449583" />
<node id="5871444997" x="364.58214119338663" y="156.78637928143144" />
<node id="5871444998" x="374.5857013874338" y="159.36311739915982" />
<node id="5871445000" x="287.27585968899075" y="13.714749787934124" />
<node id="5871445007" x="274.5800835341797" y="22.217670963611454" />
<node id="5871445012" x="189.5172155739856" y="15.315013985149562" />
<node id="5871445014" x="59.426211352518294" y="96.65125269303098" />
<node id="5871445015" x="290.19073814799776" y="-117.36758294748142" />
<node id="5871445019" x="299.78504812991014" y="204.33677055174485" />
<node id="5871445020" x="-48.425977664010134" y="337.6496293582022" />
<node id="5871445023" x="-570.959592701518" y="529.6314004738815" />
<node id="5871445024" x="-418.25505466974573" y="526.2348965806887" />
<node id="5871445368" x="-1050.3185500776744" y="588.5500424383208" />
<node id="5871445370" x="-944.415796407091" y="544.6367238881066" />
<node id="5871445371" x="-960.1071133396472" y="637.8665741765872" />
<node id="5871445374" x="-1104.2019868233474" y="582.4207376940176" />
<node id="5871445375" x="-1019.7286655263742" y="660.308715717867" />
<node id="7746660925" x="351.99296011275146" y="191.72159225819632" />
<node id="7746660931" x="381.51874954393134" y="187.16888432623819" />
<node id="8077954868" x="-871.4869882141356" y="-399.2927340208553" />
<node id="8077954872" x="-768.6016452367767" y="-331.83493115147576" />
<node id="8077954882" x="-612.9683836675831" y="-92.79614348523319" />
<node id="8077954897" x="-616.7631019087858" y="-30.39060764759779" />
<node id="8077954913" x="-374.5177870124462" y="32.79474300611764" />
<node id="8077954927" x="-94.70067841478158" y="122.59157320903614" />
<node id="8077954953" x="24.913899387058336" y="116.8630362469703" />
<node id="8077954961" x="23.403304030012805" y="16.931415179744363" />
<node id="8077954963" x="-84.01889312110143" y="141.96565842954442" />
<node id="8077954983" x="-594.722621838504" y="444.7665565479547" />
<node id="8077954989" x="-933.6881452959497" y="629.263124584686" />
<node id="8078035961" x="336.1180970376008" y="-238.52116281259805" />
<node id="8080003641" x="-740.9242769080447" y="-176.43548720981926" />
<node id="8080003643" x="-782.2596060576616" y="-259.7640199935995" />
<node id="8080214634" x="-80.89583422133" y="182.1107528419234" />
<node id="8080225461" x="652.100895217096" y="211.68762273387983" />
<node id="8080225476" x="407.83584966271883" y="165.6506550712511" />
<node id="8080225478" x="1029.9585299287573" y="-100.0262690661475" />
<node id="8080225479" x="486.80571594671346" y="-293.7521875547245" />
<node id="8080225490" x="743.2265071065049" y="-201.430722925812" />
<node id="8080225504" x="712.2969305410516" y="-696.119546466507" />
<node id="8080225508" x="683.307813817577" y="-596.3992092399858" />
<node id="8080225509" x="463.37010937707964" y="-657.9400153434835" />
<node id="8096514758" x="1029.3561758272117" y="145.19330050889403" />
<node id="8096800086" x="1109.4460697443574" y="57.83038937440142" />
<node id="8096800094" x="938.8893934317748" y="2.777164605911821" />
<node id="8096800095" x="1029.3614265013603" y="2.445548462215811" />
<node id="8096800096" x="969.6260575487977" y="199.16519419988617" />
<node id="8096800102" x="1035.2818945268518" y="145.0244577554986" />
<node id="8096944325" x="909.4414596989518" y="-237.87551735853776" />
</nodes>