<nodes>
<node id="5046281115" x="-448.3847881849506" y="373.5892825340852" />
<node id="5046281117" x="-285.6300786889624" y="243.24128352617845" />
<node id="5046281224" x="-411.4202835018514" y="-131.02614108938724" />
<node id="5046281231" x="-576.947448004561" y="469.4259435883723" />
<node id="5046281241" x="-361.91980943857925" y="318.75246777385473" />
<node id="5046281242" x="-291.56354908883804" y="89.70080974604934" />
<node id="5046281243" x="-219.4314107390237" y="93.44628634629771" />
<node id="5046281246" x="-227.18815695424564" y="1.7371366769075394" />
<node id="5046281250" x="-228.1017917356221" y="-41.383355252444744" />
<node id="5046281253" x="-176.77702334104106" y="-91.34167270036414" />
<node id="5046281262" x="82.51873129315209" y="-37.810927520971745" />
<node id="5046281293" x="-64.30518866644707" y="-53.53180571598932" />
<node id="5046281316" x="-297.29131196957314" y="-96.85612475732341" />
<node id="5046281635" x="-72.86905118793948" y="-197.89459326630458" />
<node id="5046281637" x="-119.93548511486733" y="-88.10008230432868" />
<node id="5046281663" x="-73.27246339805424" y="-367.8317374996841" />
<node id="5046281665" x="-32.00938129477436" y="-355.3722581653856" />
<node id="5046281674" x="-165.49247394799022" y="-213.3293005512096" />
<node id="5046281677" x="-163.35405381419696" y="-278.1622371315025" />
<node id="5046281678" x="-152.3786632285337" y="-240.75006857328117" />
<node id="5046281691" x="-178.10689034778625" y="-250.4914271919988" />
<node id="5046281696" x="-335.37438567134086" y="-263.65519411396235" />
<node id="5046281698" x="-447.87812456680695" y="-455.6135129746981" />
<node id="5046281706" x="-439.99602741538547" y="-435.5828729397617" />
<node id="5046281719" x="96.06280483363662" y="-140.0221351799555" />
<node id="5046281720" x="84.14999782934319" y="-278.9910134309903" />
<node id="5046281923" x="363.96823135222076" y="-145.8530359454453" />
<node id="5046281932" x="-664.8069448675378" y="585.5734774135053" />
<node id="5046281933" x="-565.0936835754546" y="507.2993681062944" />
<node id="5046281934" x="-631.7844590436434" y="516.4325412334874" />
<node id="5046281935" x="-611.1629608044168" y="543.4651568122208" />
<node id="5268161701" x="8.881348704686388" y="-583.0108829718083" />
<node id="9156964084" x="-462.49421120475745" y="-419.21848789881915" />
<node id="9156964086" x="-442.25944565294776" y="-500.4427290321328" />
<node id="9156964132" x="-502.3223092745757" y="-280.1668324377388" />
<node id="9156964133" x="-396.0842429064214" y="-348.50089045008644" />
<node id="9156964134" x="-483.067313936539" y="-246.0206199386157" />
<node id="9156964135" x="-372.1657016358804" y="-312.19186316337436" />
<node id="9156964136" x="-476.45363279333105" y="-232.46189147327095" />
<node id="9156964139" x="-533.1550498812576" y="-200.18477263581008" />
<node id="9156964140" x="-524.3261262761662" y="-316.48324162792414" />
<node id="9156968687" x="-429.61314913869137" y="5.3268784414976835" />
<node id="9156968689" x="-357.71919882053044" y="-38.424790776800364" />
<node id="9156968690" x="-505.33049046073575" y="-142.1577766155824" />
<node id="9156968710" x="-513.9146025566151" y="-136.2889953958802" />
<node id="9156968716" x="-503.88963247532956" y="-398.0848265932873" />
<node id="9156969777" x="-623.0353309473139" y="416.2988354456611" />
<node id="9156969785" x="89.07491589948768" y="33.97407600050792" />
<node id="9157237010" x="-194.75088597700233" y="-441.6664520842023" />
<node id="9157237011" x="-199.08085482136812" y="-361.72315392363816" />
<node id="9157237012" x="-229.17838806449436" y="-440.9882377902977" />
<node id="9327109707" x="387.1417448441498" y="-130.22171771666035" />
<node id="9327109709" x="407.9204330741777" y="-10.363655576482415" />
<node id="9327109712" x="84.96407401311444" y="1.3177607958205044" />
<node id="9327109713" x="386.72291924775345" y="-143.58355558663607" />
<node id="9327109715" x="470.5112680824823" y="-149.71169376419857" />
<node id="9327112917" x="389.1382726600277" y="-122.37971153389663" />
<node id="9327112918" x="403.60025141760707" y="-65.53894729819149" />
<node id="9327112919" x="492.47653534874553" y="-88.57106206286699" />
<node id="9327112920" x="511.1973252934404" y="-31.359272809699178" />
<node id="9445315190" x="1.3825238972785883" y="-575.6187964375131" />
<node id="9445315205" x="220.05848088121274" y="-291.34785508643836" />
<node id="9492611306" x="-310.6282853500452" y="451.65329853026196" />
<node id="9503937178" x="530.5542374149663" y="-287.08981690276414" />
<node id="9503937179" x="211.65606666111853" y="-140.02096680598333" />
<node id="9503937186" x="474.15675255609676" y="-228.47846417035908" />
<node id="9503951322" x="478.48984869697597" y="-295.4787519588135" />
<node id="9503979830" x="-129.17569762672065" y="-530.9628872093745" />
<node id="9503979833" x="-14.608074054936878" y="-523.1760499314405" />
<node id="9503979839" x="-123.21669162000762" y="-437.8073614127934" />
<node id="9503979840" x="-106.28373861807631" y="-470.6792818480171" />
<node id="9504624559" x="208.4488042150624" y="-230.7737577036023" />
<node id="9504677030" x="94.33928677375661" y="103.638395850081" />
<node id="9504677031" x="159.47439626266714" y="99.84019142994657" />
<node id="9504677033" x="-25.676053242234048" y="-348.2559310020879" />
<node id="9504677035" x="-214.0800074558938" y="-228.5717206983827" />
<node id="9867858127" x="666.3513542017317" y="-215.37509343540296" />
<node id="9897304140" x="-541.5488106652629" y="-195.11388998199254" />
<node id="9947072294" x="-319.4450848278357" y="6.60741205746308" />
<node id="9947072295" x="-326.7763932974194" y="12.448991762008518" />
<node id="9949523574" x="-72.78411458950723" y="36.09334457619116" />
</nodes>