<nodes>
<node id="4976600839" x="-63.036479177186266" y="141.91941244807094" />
<node id="4976600553" x="168.4795646619168" y="116.73886428074911" />
<node id="1359543050" x="144.73501127160853" y="-406.9683064557612" />
<node id="4976600814" x="185.64755061332835" y="112.6109201903455" />
<node id="4976600848" x="69.2364682953339" y="305.4503649678081" />
<node id="4976600849" x="-46.52929979877081" y="184.1464361809194" />
<node id="4976600880" x="-12.909736317582428" y="405.63519007433206" />
<node id="4976600820" x="46.16571799456142" y="283.1959288860671" />
<node id="4976600853" x="-144.60427363973577" y="277.5585571071133" />
<node id="4994125269" x="-158.42453762399964" y="-153.00918908976018" />
<node id="4976600821" x="-132.99667712597875" y="62.646751794964075" />
<node id="4994125272" x="-186.78158820944373" y="-225.45769506134093" />
<node id="4976600828" x="-4.397655705455691" y="-76.2369247013703" />
<node id="4994125279" x="3.513066061132122" y="-211.21956193074584" />
</nodes>