<connections>
<connection from="4976600821to4976600839" to="4976600839to4976600821" />
<connection from="4976600821to4976600839" to="4976600839to4976600828" />
<connection from="4976600821to4976600839" to="4976600839to4976600849" />
<connection from="4976600828to4976600839" to="4976600839to4976600821" />
<connection from="4976600828to4976600839" to="4976600839to4976600828" />
<connection from="4976600828to4976600839" to="4976600839to4976600849" />
<connection from="4976600849to4976600839" to="4976600839to4976600821" />
<connection from="4976600849to4976600839" to="4976600839to4976600828" />
<connection from="4976600849to4976600839" to="4976600839to4976600849" />
<connection from="1359543050to4976600553" to="4976600553to1359543050" />
<connection from="1359543050to4976600553" to="4976600553to4976600814" />
<connection from="1359543050to4976600553" to="4976600553to4976600820" />
<connection from="4976600814to4976600553" to="4976600553to1359543050" />
<connection from="4976600814to4976600553" to="4976600553to4976600814" />
<connection from="4976600814to4976600553" to="4976600553to4976600820" />
<connection from="4976600820to4976600553" to="4976600553to1359543050" />
<connection from="4976600820to4976600553" to="4976600553to4976600814" />
<connection from="4976600820to4976600553" to="4976600553to4976600820" />
<connection from="4976600553to1359543050" to="1359543050to4976600553" />
<connection from="4976600553to4976600814" to="4976600814to4976600553" />
<connection from="4976600820to4976600848" to="4976600848to4976600820" />
<connection from="4976600839to4976600849" to="4976600849to4976600839" />
<connection from="4976600839to4976600849" to="4976600849to4976600820" />
<connection from="4976600839to4976600849" to="4976600849to4976600853" />
<connection from="4976600820to4976600849" to="4976600849to4976600839" />
<connection from="4976600820to4976600849" to="4976600849to4976600820" />
<connection from="4976600820to4976600849" to="4976600849to4976600853" />
<connection from="4976600853to4976600849" to="4976600849to4976600839" />
<connection from="4976600853to4976600849" to="4976600849to4976600820" />
<connection from="4976600853to4976600849" to="4976600849to4976600853" />
<connection from="4976600853to4976600880" to="4976600880to4976600853" />
<connection from="4976600553to4976600820" to="4976600820to4976600553" />
<connection from="4976600553to4976600820" to="4976600820to4976600848" />
<connection from="4976600553to4976600820" to="4976600820to4976600849" />
<connection from="4976600848to4976600820" to="4976600820to4976600553" />
<connection from="4976600848to4976600820" to="4976600820to4976600848" />
<connection from="4976600848to4976600820" to="4976600820to4976600849" />
<connection from="4976600849to4976600820" to="4976600820to4976600553" />
<connection from="4976600849to4976600820" to="4976600820to4976600848" />
<connection from="4976600849to4976600820" to="4976600820to4976600849" />
<connection from="4976600849to4976600853" to="4976600853to4976600849" />
<connection from="4976600849to4976600853" to="4976600853to4976600880" />
<connection from="4976600849to4976600853" to="4976600853to4994125269" />
<connection from="4976600880to4976600853" to="4976600853to4976600849" />
<connection from="4976600880to4976600853" to="4976600853to4976600880" />
<connection from="4976600880to4976600853" to="4976600853to4994125269" />
<connection from="4994125269to4976600853" to="4976600853to4976600849" />
<connection from="4994125269to4976600853" to="4976600853to4976600880" />
<connection from="4994125269to4976600853" to="4976600853to4994125269" />
<connection from="4976600853to4994125269" to="4994125269to4976600853" />
<connection from="4976600853to4994125269" to="4994125269to4994125272" />
<connection from="4976600853to4994125269" to="4994125269to4994125279" />
<connection from="4994125272to4994125269" to="4994125269to4976600853" />
<connection from="4994125272to4994125269" to="4994125269to4994125272" />
<connection from="4994125272to4994125269" to="4994125269to4994125279" />
<connection from="4994125279to4994125269" to="4994125269to4976600853" />
<connection from="4994125279to4994125269" to="4994125269to4994125272" />
<connection from="4994125279to4994125269" to="4994125269to4994125279" />
<connection from="4976600839to4976600821" to="4976600821to4976600839" />
<connection from="4994125269to4994125272" to="4994125272to4994125269" />
<connection from="4976600839to4976600828" to="4976600828to4976600839" />
<connection from="4994125269to4994125279" to="4994125279to4994125269" />
</connections>