<edges>
<edge from="245674992" to="668672574" id="245674992to668672574" numLanes="1" shape="-176.23580568516627,170.56528490642086 -208.49309990060283,184.42613167036325" />
<edge from="245674992" to="6583550562" id="245674992to6583550562" numLanes="1" shape="-176.23580568516627,170.56528490642086 -5.120587299170438,100.30303374957293 68.33864496834576,70.73697962844744 68.33864496834576,70.73697962844744" />
<edge from="245674992" to="667357326" id="245674992to667357326" numLanes="1" shape="-176.23580568516627,170.56528490642086 -179.3422337489901,78.00444259634241 -162.83438114303863,50.414064936339855 -111.73862041032407,1.4170315442606807 2.169624943402596,-97.20368878543377 3.7816104861558415,-111.14086337201297 -3.718653022428043,-140.82473716232926 3.6125940665369853,-154.35413383413106 13.677032309118658,-157.56355546973646 42.88000633276533,-146.14254044601694 81.95081369712716,-136.7659253445454 106.47111777437385,-134.99931385787204 132.1100955218426,-143.54328349092975 145.46131364931352,-159.6911261016503 148.69865197205218,-172.36329191504046 148.41449483053293,-197.9258769354783 148.41449483053293,-197.9258769354783" />
<edge from="667357309" to="667357310" id="667357309to667357310" numLanes="1" shape="333.7912134086946,-731.6307954583317 326.227156842011,-715.518969098106" />
<edge from="667357309" to="668660548" id="667357309to668660548" numLanes="1" shape="333.7912134086946,-731.6307954583317 378.8460343485931,-848.903260007035" />
<edge from="667357309" to="6627410442" id="667357309to6627410442" numLanes="1" shape="333.7912134086946,-731.6307954583317 311.963846287108,-789.9097081576474 303.82886244304245,-809.3109983778559 298.10173707432114,-816.5393333160318 289.2832921241643,-821.7709970367141 275.5918112631771,-821.7405476891436 249.9606544477865,-812.4551457432099 228.42487099266145,-811.8660381725058 228.42487099266145,-811.8660381725058" />
<edge from="667357310" to="667357309" id="667357310to667357309" numLanes="1" shape="326.227156842011,-715.518969098106 333.7912134086946,-731.6307954583317" />
<edge from="667357310" to="667357311" id="667357310to667357311" numLanes="1" shape="326.227156842011,-715.518969098106 392.54329942539334,-697.5090228524059" />
<edge from="667357310" to="6495983054" id="667357310to6495983054" numLanes="1" shape="326.227156842011,-715.518969098106 281.6341279097833,-584.3006937298924" />
<edge from="667357311" to="667357310" id="667357311to667357310" numLanes="1" shape="392.54329942539334,-697.5090228524059 326.227156842011,-715.518969098106" />
<edge from="667357311" to="5879215643" id="667357311to5879215643" numLanes="1" shape="392.54329942539334,-697.5090228524059 351.42418165539857,-605.88263166463 334.65280415443704,-540.2674672082067 335.2703027020907,-492.90753438463435 335.2703027020907,-492.90753438463435" />
<edge from="667357311" to="5879215650" id="667357311to5879215650" numLanes="1" shape="392.54329942539334,-697.5090228524059 403.2716834399034,-728.9161627949215 409.00650827528443,-743.9874903815798 409.00650827528443,-743.9874903815798" />
<edge from="667357317" to="668699249" id="667357317to668699249" numLanes="1" shape="258.4035797419492,-471.75037284288555 335.50777165888576,-474.7628670814447" />
<edge from="667357317" to="6495983054" id="667357317to6495983054" numLanes="1" shape="258.4035797419492,-471.75037284288555 266.14983066997956,-538.7305888100527 281.6341279097833,-584.3006937298924 281.6341279097833,-584.3006937298924" />
<edge from="667357317" to="6568909609" id="667357317to6568909609" numLanes="1" shape="258.4035797419492,-471.75037284288555 250.53997839987278,-460.47351532103494 237.61656701401807,-451.66076089721173 229.59737426403444,-448.1326504293829 220.48192179994658,-443.87175332941115 220.48192179994658,-443.87175332941115" />
<edge from="667357318" to="6568909609" id="667357318to6568909609" numLanes="1" shape="159.98180121765472,-440.2044087648392 201.44253505545203,-442.24941597227007 220.48192179994658,-443.87175332941115 220.48192179994658,-443.87175332941115" />
<edge from="667357318" to="667357326" id="667357318to667357326" numLanes="1" shape="159.98180121765472,-440.2044087648392 160.32643258548342,-435.1374037093483 165.61412601638585,-357.16286599542946 170.9136864549946,-350.48309055669233 183.10353380802553,-341.3942921292037 187.71500258136075,-333.2890434982255 184.89905026415363,-315.2850684057921 178.45860892825294,-301.16849704505876 172.95775332226185,-267.40978236077353 168.33157631324138,-259.1167544997297 158.88787722378038,-255.91483762767166 155.7417597422609,-250.58471093978733 154.12099944008514,-242.6597282011062 151.99212602700572,-230.5765605159104 149.37460133054992,-214.46830742619932 148.41449483053293,-197.9258769354783 148.41449483053293,-197.9258769354783" />
<edge from="667357318" to="6495983060" id="667357318to6495983060" numLanes="1" shape="159.98180121765472,-440.2044087648392 182.48261975456262,-523.9028528416529 189.68238902231678,-593.4453788585961 189.68238902231678,-593.4453788585961" />
<edge from="667357325" to="6568909594" id="667357325to6568909594" numLanes="1" shape="337.1058348065126,-352.25584829505533 335.9170037024305,-268.41326914541423" />
<edge from="667357325" to="668699249" id="667357325to668699249" numLanes="1" shape="337.1058348065126,-352.25584829505533 335.50777165888576,-474.7628670814447" />
<edge from="667357325" to="5366445105" id="667357325to5366445105" numLanes="1" shape="337.1058348065126,-352.25584829505533 432.61394158616895,-352.76372295524925" />
<edge from="667357325" to="8666700466" id="667357325to8666700466" numLanes="1" shape="337.1058348065126,-352.25584829505533 287.7390081200283,-349.57425695983693" />
<edge from="667357326" to="245674992" id="667357326to245674992" numLanes="1" shape="148.41449483053293,-197.9258769354783 148.41449483053293,-197.9258769354783 148.69865197205218,-172.36329191504046 145.46131364931352,-159.6911261016503 132.1100955218426,-143.54328349092975 106.47111777437385,-134.99931385787204 81.95081369712716,-136.7659253445454 42.88000633276533,-146.14254044601694 13.677032309118658,-157.56355546973646 3.6125940665369853,-154.35413383413106 -3.718653022428043,-140.82473716232926 3.7816104861558415,-111.14086337201297 2.169624943402596,-97.20368878543377 -111.73862041032407,1.4170315442606807 -162.83438114303863,50.414064936339855 -179.3422337489901,78.00444259634241 -176.23580568516627,170.56528490642086" />
<edge from="667357326" to="667357318" id="667357326to667357318" numLanes="1" shape="148.41449483053293,-197.9258769354783 148.41449483053293,-197.9258769354783 149.37460133054992,-214.46830742619932 151.99212602700572,-230.5765605159104 154.12099944008514,-242.6597282011062 155.7417597422609,-250.58471093978733 158.88787722378038,-255.91483762767166 168.33157631324138,-259.1167544997297 172.95775332226185,-267.40978236077353 178.45860892825294,-301.16849704505876 184.89905026415363,-315.2850684057921 187.71500258136075,-333.2890434982255 183.10353380802553,-341.3942921292037 170.9136864549946,-350.48309055669233 165.61412601638585,-357.16286599542946 160.32643258548342,-435.1374037093483 159.98180121765472,-440.2044087648392" />
<edge from="667357326" to="6573854574" id="667357326to6573854574" numLanes="1" shape="148.41449483053293,-197.9258769354783 154.35995998751605,-197.96364452317357 202.32282560534077,-196.56534434808418 206.24905971321277,-199.13669661199674 208.18363446684089,-202.81365105276927 208.64157117553987,-246.4440245111473 210.9887187598506,-250.82345786504447 216.18644373683492,-253.55392256146297 226.91537866048748,-253.11728589283302 285.8428742662072,-250.94168162345886 285.8428742662072,-250.94168162345886" />
<edge from="667357348" to="667357361" id="667357348to667357361" numLanes="1" shape="-157.05845170945395,465.63531921617687 -144.3125499956077,464.92926449421793" />
<edge from="667357352" to="6785961658" id="667357352to6785961658" numLanes="1" shape="407.1894985525287,13.545342660043389 406.54999835183844,21.69111106544733" />
<edge from="667357352" to="3215340464" id="667357352to3215340464" numLanes="1" shape="407.1894985525287,13.545342660043389 414.7760303639807,-150.66983361635357" />
<edge from="667357352" to="6785961623" id="667357352to6785961623" numLanes="1" shape="407.1894985525287,13.545342660043389 518.4278159468668,20.047090409323573 528.0590196098783,28.17006879672408 528.0590196098783,28.17006879672408" />
<edge from="667357359" to="4348259298" id="667357359to4348259298" numLanes="1" shape="-109.32945214386564,545.2947244630195 -138.9029535226873,531.8522468889132 -139.47143003414385,524.7948903101496 -139.47143003414385,524.7948903101496" />
<edge from="667357361" to="667357348" id="667357361to667357348" numLanes="1" shape="-144.3125499956077,464.92926449421793 -157.05845170945395,465.63531921617687" />
<edge from="667357361" to="4348259298" id="667357361to4348259298" numLanes="1" shape="-144.3125499956077,464.92926449421793 -139.47143003414385,524.7948903101496" />
<edge from="667357361" to="668672699" id="667357361to668672699" numLanes="1" shape="-144.3125499956077,464.92926449421793 -150.6462984654354,382.32782641332597" />
<edge from="667357367" to="5366445082" id="667357367to5366445082" numLanes="1" shape="346.5848363855621,351.4310747659765 263.27679861558136,311.36915333755314" />
<edge from="667357367" to="668620092" id="667357367to668620092" numLanes="1" shape="346.5848363855621,351.4310747659765 346.74124986259267,189.90637866733596" />
<edge from="667357367" to="4348259329" id="667357367to4348259329" numLanes="1" shape="346.5848363855621,351.4310747659765 373.8018598417402,483.1436136504635" />
<edge from="667357367" to="4348259327" id="667357367to4348259327" numLanes="1" shape="346.5848363855621,351.4310747659765 374.1787770616356,370.9655638965778 400.8635066957213,386.62455512955785 511.85956548474496,387.1166467075236 511.85956548474496,387.1166467075236" />
<edge from="667357368" to="5366445105" id="667357368to5366445105" numLanes="1" shape="441.0196910124505,-489.81714344909415 432.61394158616895,-352.76372295524925" />
<edge from="667357368" to="5879215641" id="667357368to5879215641" numLanes="1" shape="441.0196910124505,-489.81714344909415 512.0305746248341,-697.7042732867412" />
<edge from="667357368" to="668685375" id="667357368to668685375" numLanes="1" shape="441.0196910124505,-489.81714344909415 584.049266838585,-479.26473309937865" />
<edge from="667357368" to="5879215642" id="667357368to5879215642" numLanes="1" shape="441.0196910124505,-489.81714344909415 378.55763357738033,-496.2250836142339" />
<edge from="667357382" to="667357385" id="667357382to667357385" numLanes="1" shape="446.64124688052107,-352.8423874611035 518.5510475974297,-352.7916480465792" />
<edge from="667357382" to="5366445105" id="667357382to5366445105" numLanes="1" shape="446.64124688052107,-352.8423874611035 432.61394158616895,-352.76372295524925" />
<edge from="667357382" to="667357387" id="667357382to667357387" numLanes="1" shape="446.64124688052107,-352.8423874611035 498.81260722281877,-309.17515179747716 510.98594541370403,-303.2194184944965 533.1875038708095,-301.75675032194704 550.4222111931304,-302.02857729187235 563.4080074681551,-310.02250284701586 612.9814293347299,-353.6511272843927 612.9814293347299,-353.6511272843927" />
<edge from="667357382" to="3215340464" id="667357382to3215340464" numLanes="1" shape="446.64124688052107,-352.8423874611035 423.06669044087175,-302.63632732769474 414.7760303639807,-150.66983361635357 414.7760303639807,-150.66983361635357" />
<edge from="667357383" to="668685380" id="667357383to668685380" numLanes="1" shape="719.6779418273363,-352.24242755491287 717.8434349944,-301.2659680265933" />
<edge from="667357383" to="5879215623" id="667357383to5879215623" numLanes="1" shape="719.6779418273363,-352.24242755491287 724.6750054237782,-457.566046115011" />
<edge from="667357383" to="667357387" id="667357383to667357387" numLanes="1" shape="719.6779418273363,-352.24242755491287 612.9814293347299,-353.6511272843927" />
<edge from="667357385" to="667357382" id="667357385to667357382" numLanes="1" shape="518.5510475974297,-352.7916480465792 446.64124688052107,-352.8423874611035" />
<edge from="667357385" to="668685375" id="667357385to668685375" numLanes="1" shape="518.5510475974297,-352.7916480465792 584.049266838585,-479.26473309937865" />
<edge from="667357385" to="667357387" id="667357385to667357387" numLanes="1" shape="518.5510475974297,-352.7916480465792 612.9814293347299,-353.6511272843927" />
<edge from="667357387" to="667357382" id="667357387to667357382" numLanes="1" shape="612.9814293347299,-353.6511272843927 612.9814293347299,-353.6511272843927 563.4080074681551,-310.02250284701586 550.4222111931304,-302.02857729187235 533.1875038708095,-301.75675032194704 510.98594541370403,-303.2194184944965 498.81260722281877,-309.17515179747716 446.64124688052107,-352.8423874611035" />
<edge from="667357387" to="667357383" id="667357387to667357383" numLanes="1" shape="612.9814293347299,-353.6511272843927 719.6779418273363,-352.24242755491287" />
<edge from="667357387" to="667357385" id="667357387to667357385" numLanes="1" shape="612.9814293347299,-353.6511272843927 518.5510475974297,-352.7916480465792" />
<edge from="667357392" to="668685380" id="667357392to668685380" numLanes="1" shape="702.8932264734758,-81.77931097801775 717.8434349944,-301.2659680265933" />
<edge from="667357392" to="6576461331" id="667357392to6576461331" numLanes="1" shape="702.8932264734758,-81.77931097801775 694.8324438694399,-82.63552144449204 640.6331594279036,-84.61403606273234 640.6331594279036,-84.61403606273234" />
<edge from="667357392" to="667357401" id="667357392to667357401" numLanes="1" shape="702.8932264734758,-81.77931097801775 718.5656067989185,-80.67050564941019 764.6539022716461,-76.6907594660297 764.6539022716461,-76.6907594660297" />
<edge from="667357401" to="667357392" id="667357401to667357392" numLanes="1" shape="764.6539022716461,-76.6907594660297 764.6539022716461,-76.6907594660297 718.5656067989185,-80.67050564941019 702.8932264734758,-81.77931097801775" />
<edge from="667357401" to="667357415" id="667357401to667357415" numLanes="1" shape="764.6539022716461,-76.6907594660297 760.9283936014399,-42.23376549081877 750.1508404443157,58.39763387106359 743.1912274302449,180.92885362170637 743.1912274302449,180.92885362170637" />
<edge from="667357401" to="668685380" id="667357401to668685380" numLanes="1" shape="764.6539022716461,-76.6907594660297 782.0388013047632,-206.64265509415418 782.583623073413,-298.78152266237885 717.8434349944,-301.2659680265933 717.8434349944,-301.2659680265933" />
<edge from="667357403" to="667357405" id="667357403to667357405" numLanes="1" shape="720.0067304044496,64.19311279477552 659.4388136214111,60.253141741734" />
<edge from="667357405" to="667357403" id="667357405to667357403" numLanes="1" shape="659.4388136214111,60.253141741734 720.0067304044496,64.19311279477552" />
<edge from="667357405" to="667357409" id="667357405to667357409" numLanes="1" shape="659.4388136214111,60.253141741734 660.006545684766,74.34139663167298 660.3458366895793,116.95457948558033 660.7619349553715,182.79650471173227 660.7619349553715,182.79650471173227" />
<edge from="667357405" to="667357407" id="667357405to667357407" numLanes="1" shape="659.4388136214111,60.253141741734 647.894153557485,53.16047710319981 616.22569073661,48.48883322766051 611.6382423402974,42.37623130436987 611.2338082621573,31.397341136820614 611.2338082621573,31.397341136820614" />
<edge from="667357407" to="667357405" id="667357407to667357405" numLanes="1" shape="611.2338082621573,31.397341136820614 611.2338082621573,31.397341136820614 611.6382423402974,42.37623130436987 616.22569073661,48.48883322766051 647.894153557485,53.16047710319981 659.4388136214111,60.253141741734" />
<edge from="667357407" to="6785961623" id="667357407to6785961623" numLanes="1" shape="611.2338082621573,31.397341136820614 528.0590196098783,28.17006879672408" />
<edge from="667357407" to="6576461331" id="667357407to6576461331" numLanes="1" shape="611.2338082621573,31.397341136820614 614.3808737022337,-81.6106987586245 619.9976044334471,-85.38683585589752 640.6331594279036,-84.61403606273234 640.6331594279036,-84.61403606273234" />
<edge from="667357409" to="667357405" id="667357409to667357405" numLanes="1" shape="660.7619349553715,182.79650471173227 660.7619349553715,182.79650471173227 660.3458366895793,116.95457948558033 660.006545684766,74.34139663167298 659.4388136214111,60.253141741734" />
<edge from="667357409" to="667357415" id="667357409to667357415" numLanes="1" shape="660.7619349553715,182.79650471173227 743.1912274302449,180.92885362170637" />
<edge from="667357409" to="4369058864" id="667357409to4369058864" numLanes="1" shape="660.7619349553715,182.79650471173227 606.6331072214525,184.01722849207 548.4327815650031,185.33093320159242 512.8518512023147,186.1315509164706 491.51599639479537,186.61844662204385 491.51599639479537,186.61844662204385" />
<edge from="667357409" to="667357412" id="667357409to667357412" numLanes="1" shape="660.7619349553715,182.79650471173227 639.6738162162364,204.0740323564969 633.138490920479,212.00215528719127 626.1852259868174,221.06463484233245 624.3596941356082,233.01124315336347 625.1135516278446,253.88459725724533 625.1135516278446,253.88459725724533" />
<edge from="667357412" to="667357409" id="667357412to667357409" numLanes="1" shape="625.1135516278446,253.88459725724533 625.1135516278446,253.88459725724533 624.3596941356082,233.01124315336347 626.1852259868174,221.06463484233245 633.138490920479,212.00215528719127 639.6738162162364,204.0740323564969 660.7619349553715,182.79650471173227" />
<edge from="667357412" to="667357419" id="667357412to667357419" numLanes="1" shape="625.1135516278446,253.88459725724533 623.9514991473407,393.91862503578886" />
<edge from="667357412" to="667357416" id="667357412to667357416" numLanes="1" shape="625.1135516278446,253.88459725724533 663.5735226752004,252.72878443915397 704.4861025780556,233.07526773260906 730.6926786096301,212.1354575441219 730.6926786096301,212.1354575441219" />
<edge from="667357415" to="667357401" id="667357415to667357401" numLanes="1" shape="743.1912274302449,180.92885362170637 743.1912274302449,180.92885362170637 750.1508404443157,58.39763387106359 760.9283936014399,-42.23376549081877 764.6539022716461,-76.6907594660297" />
<edge from="667357415" to="667357409" id="667357415to667357409" numLanes="1" shape="743.1912274302449,180.92885362170637 660.7619349553715,182.79650471173227" />
<edge from="667357415" to="667357416" id="667357415to667357416" numLanes="1" shape="743.1912274302449,180.92885362170637 730.6926786096301,212.1354575441219" />
<edge from="667357416" to="667357412" id="667357416to667357412" numLanes="1" shape="730.6926786096301,212.1354575441219 730.6926786096301,212.1354575441219 704.4861025780556,233.07526773260906 663.5735226752004,252.72878443915397 625.1135516278446,253.88459725724533" />
<edge from="667357416" to="667357415" id="667357416to667357415" numLanes="1" shape="730.6926786096301,212.1354575441219 743.1912274302449,180.92885362170637" />
<edge from="667357416" to="9169143586" id="667357416to9169143586" numLanes="1" shape="730.6926786096301,212.1354575441219 730.6565663335496,270.95184952626005 736.2597653380362,314.6427720384672 736.466916107398,332.03486062958837 710.5023849242134,474.86658950615674 710.5023849242134,474.86658950615674" />
<edge from="667357419" to="667357412" id="667357419to667357412" numLanes="1" shape="623.9514991473407,393.91862503578886 625.1135516278446,253.88459725724533" />
<edge from="667357419" to="7265460758" id="667357419to7265460758" numLanes="1" shape="623.9514991473407,393.91862503578886 623.0794290920021,431.1208437271416" />
<edge from="667357419" to="4348259327" id="667357419to4348259327" numLanes="1" shape="623.9514991473407,393.91862503578886 511.85956548474496,387.1166467075236" />
<edge from="667357421" to="1990860600" id="667357421to1990860600" numLanes="1" shape="360.5955794036854,605.7720110411756 371.9640124962898,619.2774438965134 387.59113157261163,625.4575618738309 397.03474279365037,626.6957101877779 410.54613289935514,624.0100255822763 453.9810004392639,606.8170003192499 484.2367872638861,587.5225055911578 484.2367872638861,587.5225055911578" />
<edge from="667357421" to="668612331" id="667357421to668612331" numLanes="1" shape="360.5955794036854,605.7720110411756 328.0046625745017,555.4829639475793 322.2941449980717,546.9700730168261 322.2941449980717,546.9700730168261" />
<edge from="667357421" to="9169143592" id="667357421to9169143592" numLanes="1" shape="360.5955794036854,605.7720110411756 345.2913373403717,619.5957281040028 329.49489261070266,644.1986959357746 325.49954496650025,663.8886645906605 326.3757143524708,689.6877717701718 332.26692435337463,734.5046218554489 341.2157197421766,774.5238853972405 348.0323568509193,801.6582788596861 351.58081392466556,814.1830059755594 338.9720853713807,845.7567198299803 331.284269232885,863.7745581218041 331.284269232885,863.7745581218041" />
<edge from="668478124" to="668672699" id="668478124to668672699" numLanes="1" shape="-191.00704964774195,401.4010221916251 -167.99834794492926,383.29934336431324 -150.6462984654354,382.32782641332597 -150.6462984654354,382.32782641332597" />
<edge from="668612331" to="667357421" id="668612331to667357421" numLanes="1" shape="322.2941449980717,546.9700730168261 322.2941449980717,546.9700730168261 328.0046625745017,555.4829639475793 360.5955794036854,605.7720110411756" />
<edge from="668612331" to="6573701524" id="668612331to6573701524" numLanes="1" shape="322.2941449980717,546.9700730168261 304.12694348045625,490.20877176942304" />
<edge from="668612331" to="4348265099" id="668612331to4348265099" numLanes="1" shape="322.2941449980717,546.9700730168261 307.33027656777995,554.0467170691118 300.96593616344035,559.525968329981 300.96593616344035,559.525968329981" />
<edge from="668612391" to="4348265098" id="668612391to4348265098" numLanes="1" shape="258.26746380282566,709.7998322295025 274.62588729325216,651.1869887192734" />
<edge from="668620092" to="667357367" id="668620092to667357367" numLanes="1" shape="346.74124986259267,189.90637866733596 346.5848363855621,351.4310747659765" />
<edge from="668620092" to="7147944046" id="668620092to7147944046" numLanes="1" shape="346.74124986259267,189.90637866733596 350.6863439409062,189.8039486068301" />
<edge from="668620092" to="7147944044" id="668620092to7147944044" numLanes="1" shape="346.74124986259267,189.90637866733596 345.0373443297576,189.98206959292293" />
<edge from="668660548" to="667357309" id="668660548to667357309" numLanes="1" shape="378.8460343485931,-848.903260007035 333.7912134086946,-731.6307954583317" />
<edge from="668660552" to="5879215645" id="668660552to5879215645" numLanes="1" shape="438.5069942031987,-821.5462456778623 418.55760244396515,-769.1025892850012" />
<edge from="668660552" to="668660560" id="668660552to668660560" numLanes="1" shape="438.5069942031987,-821.5462456778623 524.0612485517631,-731.1198499877937 694.1041044362937,-540.5651916507632 694.1041044362937,-540.5651916507632" />
<edge from="668660560" to="668660552" id="668660560to668660552" numLanes="1" shape="694.1041044362937,-540.5651916507632 694.1041044362937,-540.5651916507632 524.0612485517631,-731.1198499877937 438.5069942031987,-821.5462456778623" />
<edge from="668672574" to="245674992" id="668672574to245674992" numLanes="1" shape="-208.49309990060283,184.42613167036325 -176.23580568516627,170.56528490642086" />
<edge from="668672574" to="6571330023" id="668672574to6571330023" numLanes="1" shape="-208.49309990060283,184.42613167036325 -330.2654374348349,228.0355212567374" />
<edge from="668672574" to="4348259295" id="668672574to4348259295" numLanes="1" shape="-208.49309990060283,184.42613167036325 -181.65455323492642,276.2270252513699" />
<edge from="668672699" to="667357361" id="668672699to667357361" numLanes="1" shape="-150.6462984654354,382.32782641332597 -144.3125499956077,464.92926449421793" />
<edge from="668672699" to="668478124" id="668672699to668478124" numLanes="1" shape="-150.6462984654354,382.32782641332597 -150.6462984654354,382.32782641332597 -167.99834794492926,383.29934336431324 -191.00704964774195,401.4010221916251" />
<edge from="668672699" to="4348259295" id="668672699to4348259295" numLanes="1" shape="-150.6462984654354,382.32782641332597 -181.65455323492642,276.2270252513699" />
<edge from="668672699" to="5366445092" id="668672699to5366445092" numLanes="1" shape="-150.6462984654354,382.32782641332597 -57.42756400216604,368.4246908510104 41.60870355111547,364.0411682170816 41.60870355111547,364.0411682170816" />
<edge from="668672700" to="6583550562" id="668672700to6583550562" numLanes="1" shape="157.98457836423768,33.33806408010423 68.33864496834576,70.73697962844744" />
<edge from="668672700" to="5366445083" id="668672700to5366445083" numLanes="1" shape="157.98457836423768,33.33806408010423 196.1320472881198,124.95998985972255 220.35640433832305,192.76553462073207 220.35640433832305,192.76553462073207" />
<edge from="668672700" to="5077600694" id="668672700to5077600694" numLanes="1" shape="157.98457836423768,33.33806408010423 266.58465194748715,-8.405484436545521 285.8778735055821,-26.639296798035502 285.8778735055821,-26.639296798035502" />
<edge from="668672704" to="6573701524" id="668672704to6573701524" numLanes="1" shape="273.12702174903825,365.1737489863299 304.12694348045625,490.20877176942304" />
<edge from="668672704" to="5366445082" id="668672704to5366445082" numLanes="1" shape="273.12702174903825,365.1737489863299 263.27679861558136,311.36915333755314" />
<edge from="668672704" to="5584937650" id="668672704to5584937650" numLanes="1" shape="273.12702174903825,365.1737489863299 196.2160576172173,360.2789574698545" />
<edge from="668685375" to="667357368" id="668685375to667357368" numLanes="1" shape="584.049266838585,-479.26473309937865 441.0196910124505,-489.81714344909415" />
<edge from="668685375" to="667357385" id="668685375to667357385" numLanes="1" shape="584.049266838585,-479.26473309937865 518.5510475974297,-352.7916480465792" />
<edge from="668685375" to="5879215634" id="668685375to5879215634" numLanes="1" shape="584.049266838585,-479.26473309937865 594.5300989318639,-474.92746930848807 620.5043733324273,-469.5125262895599 634.9257496511564,-467.4366370118223 659.1757313095732,-472.48655087593943 672.2166305389255,-482.0532993194647 672.2166305389255,-482.0532993194647" />
<edge from="668685380" to="667357383" id="668685380to667357383" numLanes="1" shape="717.8434349944,-301.2659680265933 719.6779418273363,-352.24242755491287" />
<edge from="668685380" to="667357392" id="668685380to667357392" numLanes="1" shape="717.8434349944,-301.2659680265933 702.8932264734758,-81.77931097801775" />
<edge from="668685380" to="667357401" id="668685380to667357401" numLanes="1" shape="717.8434349944,-301.2659680265933 717.8434349944,-301.2659680265933 782.583623073413,-298.78152266237885 782.0388013047632,-206.64265509415418 764.6539022716461,-76.6907594660297" />
<edge from="668699188" to="668699199" id="668699188to668699199" numLanes="1" shape="-320.2402154749725,-865.6336363083683 -338.63970971107483,-732.1800668677315" />
<edge from="668699188" to="668699193" id="668699188to668699193" numLanes="1" shape="-320.2402154749725,-865.6336363083683 -354.47852843720466,-871.1810051240027 -358.6305132395355,-876.036383362487 -361.82369824685156,-883.4387974119745 -360.1007042711135,-903.9210974397138 -353.86377227917546,-920.0838193679228 -348.33534919354133,-924.2135005127639 -343.21319325477816,-926.2345753745176 -304.36391973728314,-917.9410194312222 -290.8975168491015,-913.0420101443306 -284.21461018937407,-908.6376332235523 -270.9368843913544,-895.7532001608051 -244.86382373329252,-887.4396145516075 -244.86382373329252,-887.4396145516075" />
<edge from="668699193" to="668699188" id="668699193to668699188" numLanes="1" shape="-244.86382373329252,-887.4396145516075 -244.86382373329252,-887.4396145516075 -270.9368843913544,-895.7532001608051 -284.21461018937407,-908.6376332235523 -290.8975168491015,-913.0420101443306 -304.36391973728314,-917.9410194312222 -343.21319325477816,-926.2345753745176 -348.33534919354133,-924.2135005127639 -353.86377227917546,-920.0838193679228 -360.1007042711135,-903.9210974397138 -361.82369824685156,-883.4387974119745 -358.6305132395355,-876.036383362487 -354.47852843720466,-871.1810051240027 -320.2402154749725,-865.6336363083683" />
<edge from="668699193" to="668699242" id="668699193to668699242" numLanes="1" shape="-244.86382373329252,-887.4396145516075 -125.97456867358414,-878.8181434157304 -94.26643598638475,-871.8671562173404 -94.26643598638475,-871.8671562173404" />
<edge from="668699199" to="668699188" id="668699199to668699188" numLanes="1" shape="-338.63970971107483,-732.1800668677315 -320.2402154749725,-865.6336363083683" />
<edge from="668699237" to="6435688924" id="668699237to6435688924" numLanes="1" shape="118.71850514394464,-815.6611000727862 97.67704404896358,-821.2671629539691" />
<edge from="668699237" to="6627410442" id="668699237to6627410442" numLanes="1" shape="118.71850514394464,-815.6611000727862 196.94721673440654,-810.9921863195486 228.42487099266145,-811.8660381725058 228.42487099266145,-811.8660381725058" />
<edge from="668699237" to="6495983060" id="668699237to6495983060" numLanes="1" shape="118.71850514394464,-815.6611000727862 148.73898009984987,-784.3194186170585 157.9096624890808,-772.5040000239387 163.5838140437845,-758.2552279983647 189.68238902231678,-593.4453788585961 189.68238902231678,-593.4453788585961" />
<edge from="668699242" to="668699193" id="668699242to668699193" numLanes="1" shape="-94.26643598638475,-871.8671562173404 -94.26643598638475,-871.8671562173404 -125.97456867358414,-878.8181434157304 -244.86382373329252,-887.4396145516075" />