<nodes>
<node id="1471040640" x="-277.0864251003368" y="568.0078905983828" />
<node id="1471100885" x="-137.59577595314477" y="306.3635141151026" />
<node id="1471100893" x="440.6487283743918" y="709.6175431543961" />
<node id="2613601271" x="-412.11711943044793" y="270.34742512600496" />
<node id="2613601278" x="-95.85801131720655" y="-97.07799507118762" />
<node id="2613601280" x="-547.1470883182483" y="-121.69861388998106" />
<node id="2613601282" x="-532.7750639874721" y="-47.69412187254056" />
<node id="2613601287" x="-302.1664824115578" y="-111.33736898843199" />
<node id="2613601289" x="-538.7290167952888" y="-77.70368318678811" />
<node id="2613601291" x="-836.3488104051212" y="-119.02790853846818" />
<node id="2613601298" x="-1082.1425894655986" y="-47.11622319277376" />
<node id="2613601300" x="-796.1558972604107" y="503.2295451136306" />
<node id="2613601305" x="-824.5559371863492" y="685.4266146104783" />
<node id="2613601307" x="-586.3418014900526" y="709.9606685503386" />
<node id="2613601309" x="-428.44944386254065" y="704.4367668344639" />
<node id="2613601310" x="-416.0892014441779" y="556.9760114075616" />
<node id="2613601311" x="-202.45659655914642" y="706.8134528254159" />
<node id="2613601324" x="-1397.0734794944292" y="317.3207510788925" />
<node id="2613601325" x="-1325.7507746670162" y="254.04631243133917" />
<node id="2613601359" x="-1038.1309396269498" y="436.58407683251426" />
<node id="2613601360" x="-1137.0600877293618" y="481.5934445755556" />
<node id="2613601368" x="299.6287626391277" y="367.3735185516998" />
<node id="2613601371" x="371.8685247573303" y="-72.88593793148175" />
<node id="2613601372" x="331.3696289875079" y="189.90081205638126" />
<node id="2614487336" x="-1068.9899379579583" y="288.4057681839913" />
<node id="2614492894" x="-1034.0978229476605" y="227.12998245097697" />
<node id="2614492895" x="-57.937096987850964" y="-446.60911039588973" />
<node id="2614495595" x="-89.83360311144497" y="-171.83796000527218" />
<node id="2614495596" x="-562.0658709541894" y="-205.50041764508933" />
<node id="2614495597" x="-79.85805270378478" y="-314.78703655162826" />
<node id="2614495599" x="-595.7394831613638" y="-299.83375222375616" />
<node id="2614495600" x="-74.03197478340007" y="-393.20021808473393" />
<node id="2614495601" x="-416.09114581521135" y="-408.25699396803975" />
<node id="2614495602" x="-415.47348463197704" y="-342.32769909128547" />
<node id="2614495603" x="-415.63841529295314" y="-494.053281262517" />
<node id="2614503546" x="-173.0940254473826" y="525.8591384687461" />
<node id="2614503548" x="-149.56706643803045" y="378.3993667480536" />
<node id="2614503550" x="70.74461348261684" y="411.0757486470975" />
<node id="2614503552" x="34.16583535436075" y="648.777559179347" />
<node id="2614503554" x="285.93345683580264" y="445.3607073170133" />
<node id="2614503560" x="239.8644351453986" y="678.9578008833341" />
<node id="2614503562" x="47.48055481899064" y="554.9161373795941" />
<node id="2614503564" x="-26.341327760368586" y="554.4649083106779" />
<node id="2614503566" x="57.518064696807414" y="487.0716394367628" />
<node id="2614503568" x="-89.5036840197863" y="493.8859541150741" />
<node id="2614507396" x="-688.5240863948129" y="218.86874727439135" />
<node id="2614552633" x="465.83394444256555" y="-705.0502236587927" />
<node id="2614552635" x="493.1827086196281" y="55.92528518661857" />
<node id="2614552636" x="589.0485443477519" y="65.65694852918386" />
<node id="2614552637" x="-1025.9928699530428" y="-159.48919541807845" />
<node id="2614563029" x="-1421.3677247974556" y="541.2798350416124" />
<node id="2614945489" x="-1064.6062603134196" y="-107.37507240567356" />
<node id="2614945497" x="-1302.267764232587" y="-74.32971607940271" />
<node id="2614945499" x="-1077.7677253495203" y="124.56438997248188" />
<node id="3009104477" x="-582.3964581304463" y="536.6694080806337" />
<node id="3437297233" x="-1115.5141950368416" y="667.554366429802" />
<node id="3437297234" x="-1108.3964313435135" y="470.44849680550396" />
<node id="3437318417" x="-40.594922403106466" y="-525.4745349478908" />
<node id="3437318418" x="-229.96108055487275" y="-547.2158497218043" />
<node id="3437318420" x="-644.9943096482893" y="-548.2814337331802" />
<node id="3437318421" x="-251.93113758589607" y="-476.3184397625737" />
<node id="5297589198" x="499.4003478132654" y="-50.746585205197334" />
<node id="5297589201" x="850.8093354623998" y="433.0312768588774" />
<node id="5297589331" x="1747.8013579186518" y="-375.45304090855643" />
<node id="5297589332" x="1644.3819543870632" y="-422.3342969631776" />
<node id="5297589366" x="25.970513748121448" y="-779.3971433499828" />
<node id="5297589408" x="-62.94422634260263" y="-425.8536296370439" />
<node id="5297589430" x="-269.8438244512072" y="551.7067153961398" />
<node id="5297589433" x="-428.60070151253603" y="267.73474532784894" />
<node id="5297589434" x="-424.55764865654055" y="259.8285055090673" />
<node id="5297589435" x="-419.0487403854495" y="275.5579677252099" />
<node id="5297628015" x="-259.71538078121375" y="559.531221235171" />
<node id="5297628018" x="-191.09079391416162" y="543.1122992620803" />
<node id="5297628020" x="-178.77547490526922" y="559.254308313597" />
<node id="5297629637" x="-265.71181755675934" y="570.798458696343" />
<node id="5413697896" x="146.30384674773086" y="-227.75906966254115" />
<node id="5413697903" x="-85.64943106262945" y="-243.20346275391057" />
<node id="5413697913" x="-349.65226943569724" y="-254.97948633739725" />
<node id="5413697917" x="-397.09727236430626" y="-221.8797232345678" />
<node id="5413697918" x="-396.79440231854096" y="-193.59734499128535" />
<node id="5413700230" x="-353.1319406091934" y="-190.09903500555083" />
<node id="5413709080" x="372.85861638956703" y="464.40380101976916" />
<node id="5413709082" x="361.8315204717219" y="378.9819272006862" />
<node id="5413709086" x="348.25297799520195" y="618.1147136613727" />
<node id="7127613422" x="-1296.577119959984" y="151.8912389180623" />
<node id="7127613425" x="-1342.0016986638075" y="248.28034807788208" />
<node id="9104709301" x="22.31137483008206" y="329.73886774107814" />
<node id="9104709305" x="-125.33228534564842" y="167.35967400250956" />
<node id="9104709306" x="-1239.0975882839411" y="468.8050673799589" />
<node id="9104709311" x="-1217.839525161311" y="271.12952570430934" />
<node id="9104709312" x="928.0875870252494" y="-5.83153075678274" />
<node id="9104709314" x="594.4467121773632" y="-47.73561704112217" />
<node id="9104709315" x="578.4218809856102" y="64.61626306222752" />
<node id="9443666311" x="-419.5806811618386" y="-550.9458130425774" />
<node id="9443670470" x="-1275.0094028698513" y="-441.5509172771126" />
<node id="9443670478" x="-766.0658334717155" y="-313.4384512216784" />
<node id="9443670479" x="-1072.141833800706" y="-403.65657095517963" />
<node id="9443670480" x="-1045.2208385458216" y="-603.9659737199545" />
<node id="9443670487" x="-1118.8197314862628" y="-610.5216723154299" />
<node id="9443679342" x="-179.91638478054665" y="-742.4289763374254" />
<node id="9443679343" x="-175.80319567001425" y="-744.1694720736705" />
<node id="9443679347" x="10.981201264658011" y="-732.9707209141925" />
<node id="9443684623" x="-196.90772802743595" y="-683.7418160084635" />
<node id="9443684624" x="-498.69825564010534" y="-761.1774531942792" />
<node id="9443684626" x="-359.3091423450969" y="-757.0085984044708" />
<node id="9443684628" x="-357.98945990612265" y="-697.0331094320863" />
<node id="9443684629" x="-363.0601015574066" y="-857.1590760606341" />
<node id="9443684630" x="-361.14566082088277" y="-805.9823764385656" />
<node id="9443684631" x="-361.0087302677566" y="-802.4178227595985" />
<node id="9443684636" x="-240.02411979134195" y="-748.3855642220005" />
<node id="9443684649" x="-226.44186185544822" y="-766.9539793175645" />
<node id="9443684650" x="-165.84192279621493" y="-744.8353302762844" />
<node id="9443684653" x="-152.70616050856188" y="-791.7195553416386" />
<node id="9443684660" x="13.33558349555824" y="-835.7542656273581" />
<node id="9443684661" x="9.938593529397622" y="-781.7768854745664" />
<node id="9443684664" x="13.206356998998672" y="-738.1575763486326" />
<node id="9443700223" x="-10.325296476832591" y="-649.8629722888581" />
<node id="9443700225" x="38.929001105134375" y="-640.3414860749617" />
<node id="9443700227" x="40.36920559685677" y="-644.4783864519559" />
<node id="9443700229" x="-8.133257091394626" y="-658.9794584750198" />
<node id="9443700235" x="46.51128075865563" y="-591.2782844030298" />
<node id="9443700246" x="33.80226436140947" y="-521.8232661853544" />
<node id="9443700252" x="43.17858725541737" y="-413.8572268211283" />
<node id="9443700263" x="59.38714214891661" y="-586.8904306236655" />
<node id="9443700279" x="63.185265632811934" y="-660.4705055658706" />
<node id="9443700303" x="75.72517954418436" y="-657.9650943675078" />
<node id="9443700304" x="71.70914071809966" y="-409.2156397434883" />
<node id="9443700307" x="72.75806694419589" y="-378.52969087054953" />
<node id="9443700309" x="64.7340753399767" y="-343.3351962021552" />
<node id="9443701620" x="163.39450429438148" y="-468.1131728058681" />
<node id="9443710165" x="-61.4624363463372" y="-580.321018143557" />
<node id="9443710166" x="-217.00197209313046" y="-598.5392369679175" />
<node id="9443710167" x="-110.5109822145896" y="-534.5290683186613" />
<node id="9443710168" x="-104.85489721468184" y="-585.4024690743536" />
<node id="9443710169" x="-87.05100952240173" y="-583.3180659762584" />
<node id="9443710178" x="-166.76178250694647" y="-592.6581422868185" />
<node id="9443710179" x="-76.32954750803765" y="-663.1712203212082" />
<node id="9443710181" x="-122.90928716456983" y="-671.1150218090042" />
<node id="9443710182" x="-97.85410825675353" y="-844.4732881374657" />
<node id="9443710189" x="-1312.4492953800363" y="-180.74676469434053" />
<node id="9443710206" x="-1242.1726144783897" y="-634.6539427479729" />
<node id="9443710207" x="-1218.4457828168524" y="-627.5890397815965" />
<node id="9443710209" x="-1207.4520379659953" y="-624.3903755135834" />
<node id="9443721540" x="-647.0014949907782" y="-553.9971842239611" />
<node id="9443721543" x="-759.9975792672485" y="-406.42945889756083" />
<node id="9443721544" x="-735.9296070893761" y="-558.7260462893173" />
<node id="9443752236" x="-623.9964836614672" y="-439.73891920084134" />
<node id="9443752237" x="-415.9551238445565" y="-434.6013647192158" />
<node id="9443781983" x="-1651.2070854379563" y="-396.7195764905773" />
<node id="9443781989" x="-1609.0759347020648" y="-431.3168094190769" />
<node id="9443801972" x="-126.42821423208807" y="-627.7310651107691" />
<node id="9443801996" x="-1250.7877339734696" y="-606.3671524543315" />
<node id="9443801998" x="-1405.8962313489756" y="-640.2133318590932" />
<node id="9443801999" x="-1205.842414073879" y="-428.6289006238803" />
<node id="9444099934" x="530.4757731527789" y="-724.8947378285229" />
<node id="9444099946" x="552.0780707382364" y="-834.655757885892" />
<node id="9444144836" x="560.6985496463021" y="-731.3178997696377" />
<node id="9455094724" x="1772.818318914855" y="-223.69517297344282" />
<node id="9455094731" x="1699.353319916292" y="-309.59695120947435" />
<node id="9455094732" x="1639.8600110389525" y="-99.09016330633312" />
<node id="9455094738" x="1560.20873606659" y="-205.80373694142327" />
<node id="9455116799" x="847.6346732613165" y="307.7875972064212" />
<node id="9455136721" x="828.2917101759231" y="-275.71076985262334" />
<node id="9455136750" x="686.8064700301038" y="301.592263254337" />
<node id="9455136775" x="675.0824292193865" y="425.55367846461013" />
<node id="9455136776" x="687.3889347090153" y="308.6556402016431" />
<node id="9455136783" x="616.8100153197302" y="259.2491394667886" />
<node id="9455148340" x="617.5904270421015" y="417.08649815572426" />
<node id="9455148354" x="485.2996390769258" y="795.5305384867825" />
<node id="9455148357" x="611.3351985405898" y="458.0404578913003" />
<node id="9455148358" x="724.8801911449991" y="478.3369925082661" />
<node id="9457095205" x="-975.8243484053528" y="-30.79830863047391" />
<node id="9457095206" x="-1019.9952765514608" y="24.5035879756324" />
<node id="9457095207" x="-1031.9074855678482" y="-152.94805042352527" />
<node id="9457095210" x="-1104.2359359252732" y="-206.78883380629122" />
<node id="9457095389" x="-1629.0999332288047" y="-304.21555176749825" />
<node id="9457095393" x="-1635.4153499306412" y="-229.61064185854048" />
<node id="9457095395" x="-1622.5616200329969" y="-219.1029741181992" />
<node id="9457095410" x="-1633.9055157667026" y="-195.90206333855167" />
<node id="9457098029" x="-155.02996974543203" y="-176.3553142757155" />
<node id="9457098037" x="-220.9673661205452" y="-105.72521487530321" />
<node id="9457098044" x="211.93306108925026" y="-79.43971535749733" />
<node id="9457098073" x="-50.56563009310048" y="-110.0132211833261" />
<node id="9457098078" x="167.17738488991745" y="-171.44005407439545" />
<node id="9457098087" x="378.96046196471434" y="-169.51624951697886" />
<node id="9457107118" x="-1598.82253235986" y="-108.16551559977233" />
<node id="9457107119" x="-1350.6758150890237" y="-37.26621257979423" />
<node id="9457121717" x="-1053.219404392643" y="-301.45036270748824" />
<node id="9457121719" x="-1007.1435114167398" y="-392.2252434482798" />
<node id="9457121732" x="-527.6182650848059" y="-208.59636233001947" />
<node id="9457124140" x="227.78805756522343" y="151.51869294792414" />
<node id="9457124147" x="359.1043135760119" y="12.64122217753902" />
<node id="9457124148" x="186.4860279096756" y="207.17739988304675" />
<node id="9457124155" x="234.0374564806698" y="162.50124803883955" />
<node id="9457124158" x="302.0299855530029" y="178.6930111530237" />
<node id="9457124160" x="225.40318591229152" y="228.6549498573877" />
<node id="9457124165" x="36.52356342272833" y="195.36607656255364" />
<node id="9457124166" x="208.8124938806286" y="357.0120840128511" />
<node id="9457129672" x="22.82755547494162" y="-169.79048745147884" />
<node id="9457129673" x="22.438664739369415" y="-116.10573043022305" />
<node id="9457129674" x="167.9769477111986" y="-105.0343308201991" />
<node id="9457129675" x="140.43822452088352" y="-389.31493270630017" />
<node id="9457155133" x="-1312.568654420902" y="473.0539842634462" />
<node id="9457155137" x="-1412.4630885816878" y="459.7285990701057" />
<node id="9457161200" x="-1546.7676828524563" y="221.38842237368226" />
<node id="9457166959" x="368.04590198979713" y="505.36086202040315" />
<node id="9457166960" x="352.0000950146932" y="594.235195403453" />
<node id="9457166968" x="-7.296696990728378" y="428.7249170234427" />
<node id="9457166969" x="-155.24386557389516" y="409.4810722847469" />
<node id="9457166970" x="-68.51673144719098" y="419.99799983901903" />
<node id="9457166971" x="-63.678539650165476" y="391.12843516329303" />
<node id="9457169354" x="-689.7965082568116" y="68.57986894529313" />
<node id="9457169355" x="-715.0461667842465" y="214.6310806791298" />
<node id="9457173370" x="-8.435946364537813" y="856.1928149005398" />
<node id="9457173383" x="-55.643933553481475" y="635.4974569971673" />
<node id="9457173385" x="310.77717821730766" y="834.7051414223388" />
<node id="9457173386" x="329.09627567161806" y="692.5815595812164" />
<node id="9457173387" x="180.28870555351023" y="771.7267964328639" />
<node id="9457173396" x="316.23105905845296" y="792.3657370796427" />
<node id="9457198504" x="224.91471908439416" y="-393.9990932843648" />
<node id="9457198508" x="-283.20433528756257" y="-333.50140381651" />
<node id="9457198509" x="-264.082217147341" y="-407.0280856229365" />
<node id="9457198510" x="-520.5892773079686" y="-317.5471155992709" />
<node id="9457198512" x="-548.1849595713429" y="-437.8697090842761" />
<node id="9457198513" x="-817.4710038858466" y="-221.0367346284911" />
<node id="9457198514" x="-924.9947989387438" y="-242.81523202499375" />
<node id="9457207156" x="-1404.1345059514279" y="383.09095376869664" />
<node id="9457207183" x="104.96849691076204" y="659.7607087059878" />
<node id="9457207184" x="67.34655587619636" y="804.2798184757121" />
<node id="9457227817" x="-1279.1749450783245" y="-340.44228426460177" />
<node id="9457227827" x="-1365.6051187530393" y="-190.9026303314604" />
<node id="9457227839" x="-1771.6484599455725" y="-249.53553364565596" />
<node id="9457227841" x="-1606.7832608243916" y="-50.68783449660987" />
<node id="9457227852" x="-1746.9775077535305" y="2.0373118543066084" />
<node id="9457258208" x="-1752.1316822892986" y="-286.1585788107477" />
<node id="9457258209" x="-1633.4308911237167" y="-264.74030251428485" />
<node id="9457258210" x="-1448.5344079536153" y="-280.648973595351" />
<node id="9457258212" x="-1467.28939527669" y="-197.10258153127506" />
<node id="9457258215" x="-1464.6956901021767" y="-238.07555057806894" />
<node id="9457270948" x="-48.9052401894005" y="-171.08957490278408" />
<node id="9457278570" x="-1360.73274505476" y="-144.34713399410248" />
<node id="9457278579" x="-1394.3807540076086" y="-55.64984735334292" />
<node id="9457375226" x="-1646.8312378863338" y="-359.120121545624" />
<node id="9457375267" x="-1399.4894649611088" y="174.19151082169265" />
<node id="9457375281" x="-1303.0486972247018" y="-236.60535431932658" />
<node id="9457375352" x="-380.3858019990148" y="704.9442483028397" />
<node id="9457375361" x="-414.5860912492499" y="810.0761780068278" />
<node id="9457375365" x="406.9780255698133" y="-358.3977581677027" />
<node id="9457375366" x="515.9893723903224" y="-348.99334123777226" />
<node id="9457375390" x="6.197374439099804" y="103.1413911357522" />
<node id="9457375454" x="-1544.021671419614" y="412.1710903183557" />
<node id="9596897610" x="-684.7588958544657" y="603.5748820798472" />
<node id="9596897613" x="-680.9365392996697" y="521.2499716286547" />
</nodes>