<connections>
<connection from="2613601310to1471040640" to="1471040640to2613601310" />
<connection from="2613601310to1471040640" to="1471040640to5297589430" />
<connection from="2613601310to1471040640" to="1471040640to5297629637" />
<connection from="5297589430to1471040640" to="1471040640to2613601310" />
<connection from="5297589430to1471040640" to="1471040640to5297589430" />
<connection from="5297589430to1471040640" to="1471040640to5297629637" />
<connection from="5297629637to1471040640" to="1471040640to2613601310" />
<connection from="5297629637to1471040640" to="1471040640to5297589430" />
<connection from="5297629637to1471040640" to="1471040640to5297629637" />
<connection from="9104709301to1471100885" to="1471100885to9104709301" />
<connection from="9104709301to1471100885" to="1471100885to2613601271" />
<connection from="9104709301to1471100885" to="1471100885to9104709305" />
<connection from="9104709301to1471100885" to="1471100885to2614503548" />
<connection from="2613601271to1471100885" to="1471100885to9104709301" />
<connection from="2613601271to1471100885" to="1471100885to2613601271" />
<connection from="2613601271to1471100885" to="1471100885to9104709305" />
<connection from="2613601271to1471100885" to="1471100885to2614503548" />
<connection from="9104709305to1471100885" to="1471100885to9104709301" />
<connection from="9104709305to1471100885" to="1471100885to2613601271" />
<connection from="9104709305to1471100885" to="1471100885to9104709305" />
<connection from="9104709305to1471100885" to="1471100885to2614503548" />
<connection from="2614503548to1471100885" to="1471100885to9104709301" />
<connection from="2614503548to1471100885" to="1471100885to2613601271" />
<connection from="2614503548to1471100885" to="1471100885to9104709305" />
<connection from="2614503548to1471100885" to="1471100885to2614503548" />
<connection from="9457173386to1471100893" to="1471100893to9457173386" />
<connection from="1471100885to2613601271" to="2613601271to1471100885" />
<connection from="1471100885to2613601271" to="2613601271to5297589434" />
<connection from="1471100885to2613601271" to="2613601271to5297589435" />
<connection from="5297589434to2613601271" to="2613601271to1471100885" />
<connection from="5297589434to2613601271" to="2613601271to5297589434" />
<connection from="5297589434to2613601271" to="2613601271to5297589435" />
<connection from="5297589435to2613601271" to="2613601271to1471100885" />
<connection from="5297589435to2613601271" to="2613601271to5297589434" />
<connection from="5297589435to2613601271" to="2613601271to5297589435" />
<connection from="9457098037to2613601278" to="2613601278to9457098037" />
<connection from="9457098037to2613601278" to="2613601278to9457098073" />
<connection from="9457098037to2613601278" to="2613601278to2614495595" />
<connection from="9457098037to2613601278" to="2613601278to9104709305" />
<connection from="9457098073to2613601278" to="2613601278to9457098037" />
<connection from="9457098073to2613601278" to="2613601278to9457098073" />
<connection from="9457098073to2613601278" to="2613601278to2614495595" />
<connection from="9457098073to2613601278" to="2613601278to9104709305" />
<connection from="2614495595to2613601278" to="2613601278to9457098037" />
<connection from="2614495595to2613601278" to="2613601278to9457098073" />
<connection from="2614495595to2613601278" to="2613601278to2614495595" />
<connection from="2614495595to2613601278" to="2613601278to9104709305" />
<connection from="9104709305to2613601278" to="2613601278to9457098037" />
<connection from="9104709305to2613601278" to="2613601278to9457098073" />
<connection from="9104709305to2613601278" to="2613601278to2614495595" />
<connection from="9104709305to2613601278" to="2613601278to9104709305" />
<connection from="2614495596to2613601280" to="2613601280to2614495596" />
<connection from="2614495596to2613601280" to="2613601280to2613601289" />
<connection from="2614495596to2613601280" to="2613601280to2613601287" />
<connection from="2613601289to2613601280" to="2613601280to2614495596" />
<connection from="2613601289to2613601280" to="2613601280to2613601289" />
<connection from="2613601289to2613601280" to="2613601280to2613601287" />
<connection from="2613601287to2613601280" to="2613601280to2614495596" />
<connection from="2613601287to2613601280" to="2613601280to2613601289" />
<connection from="2613601287to2613601280" to="2613601280to2613601287" />
<connection from="2613601289to2613601282" to="2613601282to2613601289" />
<connection from="2613601289to2613601282" to="2613601282to5297589434" />
<connection from="2613601289to2613601282" to="2613601282to2613601287" />
<connection from="5297589434to2613601282" to="2613601282to2613601289" />
<connection from="5297589434to2613601282" to="2613601282to5297589434" />
<connection from="5297589434to2613601282" to="2613601282to2613601287" />
<connection from="2613601287to2613601282" to="2613601282to2613601289" />
<connection from="2613601287to2613601282" to="2613601282to5297589434" />
<connection from="2613601287to2613601282" to="2613601282to2613601287" />
<connection from="2613601280to2613601287" to="2613601287to2613601280" />
<connection from="2613601280to2613601287" to="2613601287to2613601282" />
<connection from="2613601280to2613601287" to="2613601287to9457098037" />
<connection from="2613601282to2613601287" to="2613601287to2613601280" />
<connection from="2613601282to2613601287" to="2613601287to2613601282" />
<connection from="2613601282to2613601287" to="2613601287to9457098037" />
<connection from="9457098037to2613601287" to="2613601287to2613601280" />
<connection from="9457098037to2613601287" to="2613601287to2613601282" />
<connection from="9457098037to2613601287" to="2613601287to9457098037" />
<connection from="2613601280to2613601289" to="2613601289to2613601280" />
<connection from="2613601280to2613601289" to="2613601289to2613601282" />
<connection from="2613601280to2613601289" to="2613601289to2613601291" />
<connection from="2613601282to2613601289" to="2613601289to2613601280" />
<connection from="2613601282to2613601289" to="2613601289to2613601282" />
<connection from="2613601282to2613601289" to="2613601289to2613601291" />
<connection from="2613601291to2613601289" to="2613601289to2613601280" />
<connection from="2613601291to2613601289" to="2613601289to2613601282" />
<connection from="2613601291to2613601289" to="2613601289to2613601291" />
<connection from="2613601289to2613601291" to="2613601291to2613601289" />
<connection from="2613601289to2613601291" to="2613601291to9457095205" />
<connection from="2613601289to2613601291" to="2613601291to2614552637" />
<connection from="9457095205to2613601291" to="2613601291to2613601289" />
<connection from="9457095205to2613601291" to="2613601291to9457095205" />
<connection from="9457095205to2613601291" to="2613601291to2614552637" />
<connection from="2614552637to2613601291" to="2613601291to2613601289" />
<connection from="2614552637to2613601291" to="2613601291to9457095205" />
<connection from="2614552637to2613601291" to="2613601291to2614552637" />
<connection from="9457095205to2613601298" to="2613601298to9457095205" />
<connection from="9457095205to2613601298" to="2613601298to2614945499" />
<connection from="9457095205to2613601298" to="2613601298to2614945489" />
<connection from="9457095205to2613601298" to="2613601298to2614945497" />
<connection from="2614945499to2613601298" to="2613601298to9457095205" />
<connection from="2614945499to2613601298" to="2613601298to2614945499" />
<connection from="2614945499to2613601298" to="2613601298to2614945489" />
<connection from="2614945499to2613601298" to="2613601298to2614945497" />
<connection from="2614945489to2613601298" to="2613601298to9457095205" />
<connection from="2614945489to2613601298" to="2613601298to2614945499" />
<connection from="2614945489to2613601298" to="2613601298to2614945489" />
<connection from="2614945489to2613601298" to="2613601298to2614945497" />
<connection from="2614945497to2613601298" to="2613601298to9457095205" />
<connection from="2614945497to2613601298" to="2613601298to2614945499" />
<connection from="2614945497to2613601298" to="2613601298to2614945489" />
<connection from="2614945497to2613601298" to="2613601298to2614945497" />
<connection from="9596897613to2613601300" to="2613601300to9596897613" />
<connection from="9596897613to2613601300" to="2613601300to2613601359" />
<connection from="9596897613to2613601300" to="2613601300to2613601305" />
<connection from="9596897613to2613601300" to="2613601300to2614507396" />
<connection from="2613601359to2613601300" to="2613601300to9596897613" />
<connection from="2613601359to2613601300" to="2613601300to2613601359" />
<connection from="2613601359to2613601300" to="2613601300to2613601305" />
<connection from="2613601359to2613601300" to="2613601300to2614507396" />
<connection from="2613601305to2613601300" to="2613601300to9596897613" />
<connection from="2613601305to2613601300" to="2613601300to2613601359" />
<connection from="2613601305to2613601300" to="2613601300to2613601305" />
<connection from="2613601305to2613601300" to="2613601300to2614507396" />
<connection from="2614507396to2613601300" to="2613601300to9596897613" />
<connection from="2614507396to2613601300" to="2613601300to2613601359" />
<connection from="2614507396to2613601300" to="2613601300to2613601305" />
<connection from="2614507396to2613601300" to="2613601300to2614507396" />
<connection from="2613601300to2613601305" to="2613601305to2613601300" />
<connection from="2613601300to2613601305" to="2613601305to3437297233" />
<connection from="2613601300to2613601305" to="2613601305to2613601307" />
<connection from="3437297233to2613601305" to="2613601305to2613601300" />
<connection from="3437297233to2613601305" to="2613601305to3437297233" />
<connection from="3437297233to2613601305" to="2613601305to2613601307" />
<connection from="2613601307to2613601305" to="2613601305to2613601300" />
<connection from="2613601307to2613601305" to="2613601305to3437297233" />
<connection from="2613601307to2613601305" to="2613601305to2613601307" />
<connection from="2613601305to2613601307" to="2613601307to2613601305" />
<connection from="2613601305to2613601307" to="2613601307to3009104477" />
<connection from="2613601305to2613601307" to="2613601307to2613601309" />
<connection from="3009104477to2613601307" to="2613601307to2613601305" />
<connection from="3009104477to2613601307" to="2613601307to3009104477" />
<connection from="3009104477to2613601307" to="2613601307to2613601309" />
<connection from="2613601309to2613601307" to="2613601307to2613601305" />
<connection from="2613601309to2613601307" to="2613601307to3009104477" />
<connection from="2613601309to2613601307" to="2613601307to2613601309" />
<connection from="2613601307to2613601309" to="2613601309to2613601307" />
<connection from="2613601307to2613601309" to="2613601309to2613601310" />
<connection from="2613601307to2613601309" to="2613601309to9457375352" />
<connection from="2613601310to2613601309" to="2613601309to2613601307" />
<connection from="2613601310to2613601309" to="2613601309to2613601310" />
<connection from="2613601310to2613601309" to="2613601309to9457375352" />
<connection from="9457375352to2613601309" to="2613601309to2613601307" />
<connection from="9457375352to2613601309" to="2613601309to2613601310" />
<connection from="9457375352to2613601309" to="2613601309to9457375352" />
<connection from="1471040640to2613601310" to="2613601310to1471040640" />
<connection from="1471040640to2613601310" to="2613601310to2613601309" />
<connection from="1471040640to2613601310" to="2613601310to3009104477" />
<connection from="2613601309to2613601310" to="2613601310to1471040640" />
<connection from="2613601309to2613601310" to="2613601310to2613601309" />
<connection from="2613601309to2613601310" to="2613601310to3009104477" />
<connection from="3009104477to2613601310" to="2613601310to1471040640" />
<connection from="3009104477to2613601310" to="2613601310to2613601309" />
<connection from="3009104477to2613601310" to="2613601310to3009104477" />
<connection from="9457375352to2613601311" to="2613601311to9457375352" />
<connection from="9457375352to2613601311" to="2613601311to5297629637" />
<connection from="5297629637to2613601311" to="2613601311to9457375352" />
<connection from="5297629637to2613601311" to="2613601311to5297629637" />
<connection from="9457207156to2613601324" to="2613601324to9457207156" />
<connection from="9457207156to2613601324" to="2613601324to2613601325" />
<connection from="9457207156to2613601324" to="2613601324to9457161200" />
<connection from="2613601325to2613601324" to="2613601324to9457207156" />
<connection from="2613601325to2613601324" to="2613601324to2613601325" />
<connection from="2613601325to2613601324" to="2613601324to9457161200" />
<connection from="9457161200to2613601324" to="2613601324to9457207156" />
<connection from="9457161200to2613601324" to="2613601324to2613601325" />
<connection from="9457161200to2613601324" to="2613601324to9457161200" />
<connection from="2613601324to2613601325" to="2613601325to2613601324" />
<connection from="2613601324to2613601325" to="2613601325to7127613425" />
<connection from="2613601324to2613601325" to="2613601325to9104709311" />
<connection from="7127613425to2613601325" to="2613601325to2613601324" />
<connection from="7127613425to2613601325" to="2613601325to7127613425" />
<connection from="7127613425to2613601325" to="2613601325to9104709311" />
<connection from="9104709311to2613601325" to="2613601325to2613601324" />
<connection from="9104709311to2613601325" to="2613601325to7127613425" />
<connection from="9104709311to2613601325" to="2613601325to9104709311" />
<connection from="2613601300to2613601359" to="2613601359to2613601300" />
<connection from="2613601300to2613601359" to="2613601359to3437297234" />
<connection from="2613601300to2613601359" to="2613601359to2614487336" />
<connection from="3437297234to2613601359" to="2613601359to2613601300" />
<connection from="3437297234to2613601359" to="2613601359to3437297234" />
<connection from="3437297234to2613601359" to="2613601359to2614487336" />
<connection from="2614487336to2613601359" to="2613601359to2613601300" />
<connection from="2614487336to2613601359" to="2613601359to3437297234" />
<connection from="2614487336to2613601359" to="2613601359to2614487336" />
<connection from="3437297234to2613601360" to="2613601360to3437297234" />
<connection from="3437297234to2613601360" to="2613601360to9104709306" />
<connection from="3437297234to2613601360" to="2613601360to9457155133" />
<connection from="9104709306to2613601360" to="2613601360to3437297234" />
<connection from="9104709306to2613601360" to="2613601360to9104709306" />
<connection from="9104709306to2613601360" to="2613601360to9457155133" />
<connection from="9457155133to2613601360" to="2613601360to3437297234" />
<connection from="9457155133to2613601360" to="2613601360to9104709306" />
<connection from="9457155133to2613601360" to="2613601360to9457155133" />
<connection from="5413709082to2613601368" to="2613601368to5413709082" />
<connection from="5413709082to2613601368" to="2613601368to9457124166" />
<connection from="5413709082to2613601368" to="2613601368to2613601372" />
<connection from="9457124166to2613601368" to="2613601368to5413709082" />
<connection from="9457124166to2613601368" to="2613601368to9457124166" />
<connection from="9457124166to2613601368" to="2613601368to2613601372" />
<connection from="2613601372to2613601368" to="2613601368to5413709082" />
<connection from="2613601372to2613601368" to="2613601368to9457124166" />
<connection from="2613601372to2613601368" to="2613601368to2613601372" />
<connection from="9457098087to2613601371" to="2613601371to9457098087" />
<connection from="9457098087to2613601371" to="2613601371to9457124147" />
<connection from="9457098087to2613601371" to="2613601371to9457098044" />
<connection from="9457098087to2613601371" to="2613601371to5297589198" />
<connection from="9457124147to2613601371" to="2613601371to9457098087" />
<connection from="9457124147to2613601371" to="2613601371to9457124147" />
<connection from="9457124147to2613601371" to="2613601371to9457098044" />
<connection from="9457124147to2613601371" to="2613601371to5297589198" />
<connection from="9457098044to2613601371" to="2613601371to9457098087" />
<connection from="9457098044to2613601371" to="2613601371to9457124147" />
<connection from="9457098044to2613601371" to="2613601371to9457098044" />
<connection from="9457098044to2613601371" to="2613601371to5297589198" />
<connection from="5297589198to2613601371" to="2613601371to9457098087" />
<connection from="5297589198to2613601371" to="2613601371to9457124147" />
<connection from="5297589198to2613601371" to="2613601371to9457098044" />
<connection from="5297589198to2613601371" to="2613601371to5297589198" />
<connection from="2613601368to2613601372" to="2613601372to2613601368" />
<connection from="2613601368to2613601372" to="2613601372to9457124147" />
<connection from="2613601368to2613601372" to="2613601372to9457124158" />
<connection from="2613601368to2613601372" to="2613601372to2614552635" />
<connection from="9457124147to2613601372" to="2613601372to2613601368" />
<connection from="9457124147to2613601372" to="2613601372to9457124147" />
<connection from="9457124147to2613601372" to="2613601372to9457124158" />
<connection from="9457124147to2613601372" to="2613601372to2614552635" />
<connection from="9457124158to2613601372" to="2613601372to2613601368" />
<connection from="9457124158to2613601372" to="2613601372to9457124147" />
<connection from="9457124158to2613601372" to="2613601372to9457124158" />
<connection from="9457124158to2613601372" to="2613601372to2614552635" />
<connection from="2614552635to2613601372" to="2613601372to2613601368" />
<connection from="2614552635to2613601372" to="2613601372to9457124147" />
<connection from="2614552635to2613601372" to="2613601372to9457124158" />
<connection from="2614552635to2613601372" to="2613601372to2614552635" />
<connection from="2613601359to2614487336" to="2614487336to2613601359" />
<connection from="2613601359to2614487336" to="2614487336to2614492894" />
<connection from="2613601359to2614487336" to="2614487336to9104709311" />
<connection from="2614492894to2614487336" to="2614487336to2613601359" />
<connection from="2614492894to2614487336" to="2614487336to2614492894" />
<connection from="2614492894to2614487336" to="2614487336to9104709311" />
<connection from="9104709311to2614487336" to="2614487336to2613601359" />
<connection from="9104709311to2614487336" to="2614487336to2614492894" />
<connection from="9104709311to2614487336" to="2614487336to9104709311" />
<connection from="2614487336to2614492894" to="2614492894to2614487336" />
<connection from="2614487336to2614492894" to="2614492894to9457169355" />
<connection from="2614487336to2614492894" to="2614492894to2614945499" />
<connection from="9457169355to2614492894" to="2614492894to2614487336" />
<connection from="9457169355to2614492894" to="2614492894to9457169355" />
<connection from="9457169355to2614492894" to="2614492894to2614945499" />
<connection from="2614945499to2614492894" to="2614492894to2614487336" />
<connection from="2614945499to2614492894" to="2614492894to9457169355" />
<connection from="2614945499to2614492894" to="2614492894to2614945499" />
<connection from="3437318421to2614492895" to="2614492895to3437318421" />
<connection from="3437318421to2614492895" to="2614492895to5297589408" />
<connection from="3437318421to2614492895" to="2614492895to3437318417" />
<connection from="5297589408to2614492895" to="2614492895to3437318421" />
<connection from="5297589408to2614492895" to="2614492895to5297589408" />
<connection from="5297589408to2614492895" to="2614492895to3437318417" />
<connection from="3437318417to2614492895" to="2614492895to3437318421" />
<connection from="3437318417to2614492895" to="2614492895to5297589408" />
<connection from="3437318417to2614492895" to="2614492895to3437318417" />
<connection from="2613601278to2614495595" to="2614495595to2613601278" />
<connection from="2613601278to2614495595" to="2614495595to9457098029" />
<connection from="2613601278to2614495595" to="2614495595to9457270948" />
<connection from="2613601278to2614495595" to="2614495595to5413697903" />
<connection from="9457098029to2614495595" to="2614495595to2613601278" />
<connection from="9457098029to2614495595" to="2614495595to9457098029" />
<connection from="9457098029to2614495595" to="2614495595to9457270948" />
<connection from="9457098029to2614495595" to="2614495595to5413697903" />
<connection from="9457270948to2614495595" to="2614495595to2613601278" />
<connection from="9457270948to2614495595" to="2614495595to9457098029" />
<connection from="9457270948to2614495595" to="2614495595to9457270948" />
<connection from="9457270948to2614495595" to="2614495595to5413697903" />
<connection from="5413697903to2614495595" to="2614495595to2613601278" />
<connection from="5413697903to2614495595" to="2614495595to9457098029" />
<connection from="5413697903to2614495595" to="2614495595to9457270948" />
<connection from="5413697903to2614495595" to="2614495595to5413697903" />
<connection from="2613601280to2614495596" to="2614495596to2613601280" />
<connection from="2613601280to2614495596" to="2614495596to9457121732" />
<connection from="2613601280to2614495596" to="2614495596to2614495599" />
<connection from="9457121732to2614495596" to="2614495596to2613601280" />
<connection from="9457121732to2614495596" to="2614495596to9457121732" />
<connection from="9457121732to2614495596" to="2614495596to2614495599" />
<connection from="2614495599to2614495596" to="2614495596to2613601280" />
<connection from="2614495599to2614495596" to="2614495596to9457121732" />
<connection from="2614495599to2614495596" to="2614495596to2614495599" />
<connection from="9457198508to2614495597" to="2614495597to9457198508" />
<connection from="9457198508to2614495597" to="2614495597to2614495600" />
<connection from="9457198508to2614495597" to="2614495597to5413697903" />
<connection from="2614495600to2614495597" to="2614495597to9457198508" />
<connection from="2614495600to2614495597" to="2614495597to2614495600" />
<connection from="2614495600to2614495597" to="2614495597to5413697903" />
<connection from="5413697903to2614495597" to="2614495597to9457198508" />
<connection from="5413697903to2614495597" to="2614495597to2614495600" />
<connection from="5413697903to2614495597" to="2614495597to5413697903" />
<connection from="2614495596to2614495599" to="2614495599to2614495596" />
<connection from="2614495596to2614495599" to="2614495599to9443752236" />
<connection from="2614495596to2614495599" to="2614495599to9457198510" />
<connection from="2614495596to2614495599" to="2614495599to9443670478" />
<connection from="9443752236to2614495599" to="2614495599to2614495596" />
<connection from="9443752236to2614495599" to="2614495599to9443752236" />
<connection from="9443752236to2614495599" to="2614495599to9457198510" />
<connection from="9443752236to2614495599" to="2614495599to9443670478" />
<connection from="9457198510to2614495599" to="2614495599to2614495596" />
<connection from="9457198510to2614495599" to="2614495599to9443752236" />
<connection from="9457198510to2614495599" to="2614495599to9457198510" />
<connection from="9457198510to2614495599" to="2614495599to9443670478" />
<connection from="9443670478to2614495599" to="2614495599to2614495596" />
<connection from="9443670478to2614495599" to="2614495599to9443752236" />
<connection from="9443670478to2614495599" to="2614495599to9457198510" />
<connection from="9443670478to2614495599" to="2614495599to9443670478" />
<connection from="2614495597to2614495600" to="2614495600to2614495597" />
<connection from="2614495597to2614495600" to="2614495600to9457198509" />
<connection from="2614495597to2614495600" to="2614495600to5297589408" />
<connection from="9457198509to2614495600" to="2614495600to2614495597" />
<connection from="9457198509to2614495600" to="2614495600to9457198509" />
<connection from="9457198509to2614495600" to="2614495600to5297589408" />
<connection from="5297589408to2614495600" to="2614495600to2614495597" />
<connection from="5297589408to2614495600" to="2614495600to9457198509" />
<connection from="5297589408to2614495600" to="2614495600to5297589408" />
<connection from="9443752237to2614495601" to="2614495601to9443752237" />
<connection from="9443752237to2614495601" to="2614495601to2614495602" />
<connection from="9443752237to2614495601" to="2614495601to9457198509" />
<connection from="2614495602to2614495601" to="2614495601to9443752237" />
<connection from="2614495602to2614495601" to="2614495601to2614495602" />
<connection from="2614495602to2614495601" to="2614495601to9457198509" />
<connection from="9457198509to2614495601" to="2614495601to9443752237" />
<connection from="9457198509to2614495601" to="2614495601to2614495602" />
<connection from="9457198509to2614495601" to="2614495601to9457198509" />
<connection from="2614495601to2614495602" to="2614495602to2614495601" />
<connection from="2614495601to2614495602" to="2614495602to9457198510" />
<connection from="2614495601to2614495602" to="2614495602to9457198508" />
<connection from="9457198510to2614495602" to="2614495602to2614495601" />
<connection from="9457198510to2614495602" to="2614495602to9457198510" />
<connection from="9457198510to2614495602" to="2614495602to9457198508" />
<connection from="9457198508to2614495602" to="2614495602to2614495601" />
<connection from="9457198508to2614495602" to="2614495602to9457198510" />
<connection from="9457198508to2614495602" to="2614495602to9457198508" />
<connection from="3437318421to2614495603" to="2614495603to3437318421" />
<connection from="3437318421to2614495603" to="2614495603to9443752237" />
<connection from="3437318421to2614495603" to="2614495603to9443666311" />
<connection from="9443752237to2614495603" to="2614495603to3437318421" />
<connection from="9443752237to2614495603" to="2614495603to9443752237" />
<connection from="9443752237to2614495603" to="2614495603to9443666311" />
<connection from="9443666311to2614495603" to="2614495603to3437318421" />
<connection from="9443666311to2614495603" to="2614495603to9443752237" />
<connection from="9443666311to2614495603" to="2614495603to9443666311" />
<connection from="9457166969to2614503546" to="2614503546to9457166969" />
<connection from="9457166969to2614503546" to="2614503546to5297628020" />
<connection from="9457166969to2614503546" to="2614503546to5297628018" />
<connection from="5297628020to2614503546" to="2614503546to9457166969" />
<connection from="5297628020to2614503546" to="2614503546to5297628020" />
<connection from="5297628020to2614503546" to="2614503546to5297628018" />
<connection from="5297628018to2614503546" to="2614503546to9457166969" />
<connection from="5297628018to2614503546" to="2614503546to5297628020" />
<connection from="5297628018to2614503546" to="2614503546to5297628018" />
<connection from="1471100885to2614503548" to="2614503548to1471100885" />
<connection from="1471100885to2614503548" to="2614503548to9457166971" />
<connection from="1471100885to2614503548" to="2614503548to9457166969" />
<connection from="9457166971to2614503548" to="2614503548to1471100885" />
<connection from="9457166971to2614503548" to="2614503548to9457166971" />
<connection from="9457166971to2614503548" to="2614503548to9457166969" />
<connection from="9457166969to2614503548" to="2614503548to1471100885" />
<connection from="9457166969to2614503548" to="2614503548to9457166971" />
<connection from="9457166969to2614503548" to="2614503548to9457166969" />
<connection from="9457166971to2614503550" to="2614503550to9457166971" />
<connection from="9457166971to2614503550" to="2614503550to2614503566" />
<connection from="9457166971to2614503550" to="2614503550to2614503554" />
<connection from="2614503566to2614503550" to="2614503550to9457166971" />
<connection from="2614503566to2614503550" to="2614503550to2614503566" />
<connection from="2614503566to2614503550" to="2614503550to2614503554" />
<connection from="2614503554to2614503550" to="2614503550to9457166971" />
<connection from="2614503554to2614503550" to="2614503550to2614503566" />
<connection from="2614503554to2614503550" to="2614503550to2614503554" />
<connection from="9457173383to2614503552" to="2614503552to9457173383" />
<connection from="9457173383to2614503552" to="2614503552to9457207183" />
<connection from="9457173383to2614503552" to="2614503552to2614503562" />
<connection from="9457207183to2614503552" to="2614503552to9457173383" />
<connection from="9457207183to2614503552" to="2614503552to9457207183" />
<connection from="9457207183to2614503552" to="2614503552to2614503562" />
<connection from="2614503562to2614503552" to="2614503552to9457173383" />
<connection from="2614503562to2614503552" to="2614503552to9457207183" />
<connection from="2614503562to2614503552" to="2614503552to2614503562" />
<connection from="2614503550to2614503554" to="2614503554to2614503550" />
<connection from="2614503550to2614503554" to="2614503554to2614503560" />
<connection from="2614503550to2614503554" to="2614503554to5413709080" />
<connection from="2614503560to2614503554" to="2614503554to2614503550" />
<connection from="2614503560to2614503554" to="2614503554to2614503560" />
<connection from="2614503560to2614503554" to="2614503554to5413709080" />
<connection from="5413709080to2614503554" to="2614503554to2614503550" />
<connection from="5413709080to2614503554" to="2614503554to2614503560" />
<connection from="5413709080to2614503554" to="2614503554to5413709080" />
<connection from="2614503554to2614503560" to="2614503560to2614503554" />
<connection from="2614503554to2614503560" to="2614503560to9457207183" />
<connection from="2614503554to2614503560" to="2614503560to9457173386" />
<connection from="9457207183to2614503560" to="2614503560to2614503554" />
<connection from="9457207183to2614503560" to="2614503560to9457207183" />
<connection from="9457207183to2614503560" to="2614503560to9457173386" />
<connection from="9457173386to2614503560" to="2614503560to2614503554" />