<nodes>
<node id="268789836" x="1046.6950861508958" y="1175.9418413317762" />
<node id="268789860" x="940.8960166563629" y="791.1283519731369" />
<node id="268789861" x="920.7529517119983" y="717.0116181403864" />
<node id="268789868" x="674.1729680362041" y="184.49747427436523" />
<node id="268789869" x="587.4252880279673" y="113.07943717157468" />
<node id="268789870" x="526.8289570680936" y="68.30339484615251" />
<node id="268789874" x="358.3042402843712" y="-148.69009113544598" />
<node id="268789875" x="307.47409878473263" y="-241.99135400704108" />
<node id="268789877" x="835.7065894944244" y="924.3672521079425" />
<node id="268789879" x="719.8719990011887" y="891.7664366548415" />
<node id="268789880" x="590.2860742865014" y="569.246420066338" />
<node id="268789881" x="553.8550089900964" y="474.19854314439" />
<node id="268789882" x="606.9358576597297" y="381.5040559945628" />
<node id="268789920" x="663.6860783873126" y="311.7031731191091" />
<node id="268789926" x="328.0721135935164" y="84.33802967192605" />
<node id="268789939" x="311.6267945417203" y="108.35353464982472" />
<node id="268789940" x="484.80966302845627" y="240.62722358992323" />
<node id="268789942" x="880.8190049384139" y="941.7069010224659" />
<node id="268789944" x="821.978572234977" y="674.0740831701551" />
<node id="268789950" x="735.7546529620886" y="334.28178719291463" />
<node id="268789954" x="787.6833853049902" y="244.07955751218833" />
<node id="268789959" x="980.2436415405245" y="1115.9533043871634" />
<node id="268789961" x="696.7092011604691" y="398.6989019091707" />
<node id="268789963" x="641.9139802340651" y="425.88122630282305" />
<node id="268789969" x="93.58897747186711" y="-390.77541825943626" />
<node id="268789971" x="116.20213354972657" y="-397.87731493241154" />
<node id="268789973" x="90.96050763170933" y="-420.91601534490474" />
<node id="268789976" x="72.46133106714115" y="-412.6320340083912" />
<node id="268789979" x="156.31997441546991" y="-376.07773218792863" />
<node id="268789985" x="251.5554597985465" y="-119.03979360009544" />
<node id="268789987" x="191.79839000845095" y="7.617361471988261" />
<node id="268789988" x="112.92187930160435" y="-20.745733201038092" />
<node id="268789990" x="88.82201973110205" y="-42.89202168141492" />
<node id="268789999" x="65.47134248027578" y="-151.26129782828502" />
<node id="268790000" x="65.45310486649396" y="-178.95451596402563" />
<node id="268790010" x="-101.72433860349702" y="-465.3928456194699" />
<node id="268790016" x="-176.66972249012906" y="-473.55007000942715" />
<node id="268790019" x="-313.3264394775615" y="-481.79720277525485" />
<node id="268790030" x="76.95372477261117" y="-465.94181205448695" />
<node id="268790035" x="60.206504806352314" y="-520.6144011442084" />
<node id="268790945" x="980.8482320323237" y="1187.872097331332" />
<node id="275675438" x="13.729233632795513" y="-651.7521627165843" />
<node id="275675439" x="7.599563864292577" y="-688.42950730538" />
<node id="275675440" x="14.478932362340856" y="-773.8525218036957" />
<node id="275675441" x="44.78347119013779" y="-852.566449154634" />
<node id="275676971" x="-481.8902600380825" y="-686.9079254989047" />
<node id="275676975" x="54.522041310032364" y="-997.1116371401586" />
<node id="275676976" x="206.48287852638168" y="-985.7454351724591" />
<node id="275676977" x="236.32291311351582" y="-970.1192856049165" />
<node id="275676979" x="474.4845904363319" y="-944.3893397590145" />
<node id="275676982" x="632.3494202091242" y="-942.3949051215313" />
<node id="304913244" x="-44.24522949481616" y="-156.41658450150862" />
<node id="304913245" x="-140.33907293557422" y="-337.47151181008667" />
<node id="304913248" x="-184.56538033904508" y="-211.16998380143195" />
<node id="304914007" x="-313.7009465202573" y="-397.55493974289857" />
<node id="304914011" x="-170.79467226425186" y="-262.4839235418476" />
<node id="330576035" x="668.5060845484259" y="465.7490528044291" />
<node id="330576044" x="656.305631008232" y="487.6282279298175" />
<node id="330576053" x="642.4652067351853" y="577.650541364681" />
<node id="330576059" x="624.5702223731205" y="548.4292584746145" />
<node id="330576066" x="675.0329319687444" y="519.5566468511242" />
<node id="330576156" x="728.7570791476173" y="569.5736069288105" />
<node id="330576253" x="432.04636255744845" y="323.4447623118758" />
<node id="330576261" x="433.13934739038814" y="246.63250641338527" />
<node id="330576280" x="477.67638930439716" y="248.8326909414027" />
<node id="330576289" x="392.2046088317875" y="172.63367412076332" />
<node id="330576364" x="97.19072446238715" y="6.298091918462887" />
<node id="330576404" x="576.1653307497036" y="347.9306340266485" />
<node id="330576439" x="530.5094237056328" y="294.328597931657" />
<node id="330576446" x="476.4533148354385" y="293.1079615787603" />
<node id="330576488" x="512.8702550551388" y="270.95714158238843" />
<node id="330576496" x="572.2213119173539" y="233.11054923338816" />
<node id="330576503" x="795.2396755417576" y="537.6120000632945" />
<node id="330576530" x="810.0197929172427" y="620.6476378310472" />
<node id="330576539" x="770.6193052140297" y="635.0542072828393" />
<node id="330576568" x="833.1672230922268" y="727.4696510003414" />
<node id="330576592" x="846.3144875880098" y="786.6988521262538" />
<node id="330576637" x="852.2251845888095" y="808.5792394815944" />
<node id="330576647" x="898.8885986914975" y="796.8054308318533" />
<node id="330576671" x="704.8496775360545" y="851.1451375156175" />
<node id="330576678" x="685.4947959674755" y="801.4679129540455" />
<node id="330576694" x="869.463259176875" y="894.0517485344317" />
<node id="330576715" x="859.9806743026129" y="845.3956504059024" />
<node id="330576733" x="975.2937037062948" y="710.1138852229342" />
<node id="330576745" x="1042.2832438661717" y="655.379647052614" />
<node id="330576757" x="851.7680118302815" y="702.541136601707" />
<node id="330576765" x="814.3983310988988" y="637.8654368540738" />
<node id="330576770" x="904.912129216129" y="652.7582997577265" />
<node id="330576811" x="887.1411458344664" y="555.8628020929173" />
<node id="330576821" x="804.3929647200275" y="581.2480015119072" />
<node id="330576830" x="894.4704503256362" y="598.8738637308124" />
<node id="330582157" x="902.4338212063885" y="639.9476078629959" />
<node id="330582170" x="880.542358769977" y="430.46660969243385" />
<node id="330582189" x="851.8546738413861" y="382.3986204608809" />
<node id="330582193" x="871.0454041999183" y="551.6749473067466" />
<node id="330582202" x="835.6704867900698" y="348.58237691107206" />
<node id="330593389" x="852.6039783526212" y="459.12788885994814" />
<node id="330593397" x="813.1430292944424" y="449.71218105917796" />
<node id="330593428" x="885.3292151728529" y="122.47572722611949" />
<node id="330593447" x="774.188171712216" y="264.6243165875785" />
<node id="330593456" x="750.9570911796181" y="304.3754867219832" />
<node id="330593460" x="717.7731371679693" y="312.4153390172869" />
<node id="330593466" x="683.4721921972814" y="295.05466127139516" />
<node id="330593476" x="429.2763159616152" y="148.18039044528268" />
<node id="330593480" x="575.4754926062305" y="102.76338084693998" />
<node id="330593497" x="730.0577141256072" y="-91.90501878457144" />
<node id="330593501" x="680.9132611286477" y="-38.8381215587724" />
<node id="330593509" x="785.5179614220979" y="63.50488258129917" />
<node id="330593514" x="503.51763903402025" y="131.92164776357822" />
<node id="330593520" x="509.8377924274537" y="163.6548593880143" />
<node id="330593523" x="474.2361547765904" y="85.07233720296063" />
<node id="330593548" x="341.73320166324265" y="25.150270133279264" />
<node id="330593595" x="237.80170858470956" y="-40.17666276078671" />
<node id="330593601" x="269.35553356137825" y="-56.6617221464403" />
<node id="330593605" x="131.6049516039202" y="35.8343759002164" />
<node id="330593612" x="167.52078283403534" y="70.65268150973134" />
<node id="330593618" x="230.74154768465087" y="42.94645344512537" />
<node id="330593624" x="288.4833197259577" y="90.39580956101418" />
<node id="330593641" x="217.9375577417668" y="98.54839472845197" />
<node id="330593646" x="326.45759645826183" y="120.97229940793477" />
<node id="330593651" x="260.5800776712131" y="130.6923022856936" />
<node id="330593656" x="357.15283191623166" y="147.3348315646872" />
<node id="330593661" x="279.8647050069412" y="156.56920659937896" />
<node id="330593666" x="308.4808679486159" y="183.99964829115197" />
<node id="330593675" x="388.97665205667727" y="206.50787147763185" />
<node id="330593688" x="336.07461415894795" y="214.07643016567454" />
<node id="330593697" x="469.76241022796603" y="-21.805356754688546" />
<node id="330593701" x="332.7446390145924" y="-31.97883181972429" />
<node id="330593710" x="442.2913887066534" y="-79.68648850289173" />
<node id="330593716" x="391.3909873777302" y="-120.56514207506552" />
<node id="330612021" x="379.6714076590142" y="-104.67054445156828" />
<node id="330612026" x="478.42725324688945" y="-214.0140422345139" />
<node id="330612027" x="227.13492299168138" y="-215.49475565948524" />
<node id="330612029" x="23.281560792878736" y="-47.18501962767914" />
<node id="330612032" x="82.02368566341465" y="-56.751389225479215" />
<node id="330612039" x="221.41407912306022" y="-76.4029803192243" />
<node id="330612040" x="173.32623314973898" y="-25.72716941521503" />
<node id="330612044" x="188.81329591211397" y="-126.83642966905609" />
<node id="330612046" x="66.04059575602878" y="-120.66105831111781" />
<node id="330612049" x="167.33552714792313" y="-124.53786194510758" />
<node id="330612053" x="99.46765427890932" y="-87.66017660801299" />
<node id="330612289" x="48.51156081142835" y="-175.696257669013" />
<node id="330612298" x="-128.11734577908646" y="-157.98864596593194" />
<node id="330612299" x="-309.3197313660057" y="-289.9912397817243" />
<node id="330648003" x="-134.75524043728365" y="-355.98002863745205" />
<node id="330648024" x="-303.97346460382687" y="-336.83383112750016" />
<node id="330648038" x="-599.7687094226712" y="-553.724746517837" />
<node id="330648048" x="-569.0597488115309" y="-548.4317869278602" />
<node id="330648051" x="-525.7755038664327" y="-766.9905012103263" />
<node id="330648058" x="-314.07115483644884" y="-469.8284433367662" />
<node id="330648061" x="-598.6090857002418" y="-400.17639569891617" />
<node id="330648065" x="-598.9341612248099" y="-339.27003764221445" />
<node id="330648075" x="-679.0889467736124" y="-280.74264080426656" />
<node id="330648098" x="-850.9417308465345" y="-603.9028328689747" />
<node id="330648108" x="-584.760557214322" y="-282.4996973944362" />
<node id="330648111" x="-527.483347471687" y="-278.1277720988728" />
<node id="330648114" x="-556.3845361573622" y="-298.96501594083384" />
<node id="330648117" x="-558.3891463269829" y="-280.47830272931606" />
<node id="330648694" x="-722.771704399609" y="-558.4611335629597" />
<node id="330648697" x="-721.0083344139857" y="-659.9607050290797" />
<node id="330653141" x="-5.379631195974071" y="-442.42466627340764" />
<node id="330653166" x="-40.621499193191994" y="-454.83803923474625" />
<node id="330653179" x="-110.60489053669153" y="-435.96962190116756" />
<node id="330653184" x="-182.06241925200447" y="-388.08719663484953" />
<node id="330653236" x="-42.7557459276868" y="-482.8787930572871" />
<node id="330653241" x="-82.5538254569401" y="-488.4324932543095" />
<node id="330653246" x="-85.4709168773843" y="-463.11930481530726" />
<node id="330653249" x="-88.1885051606223" y="-511.9724953016266" />
<node id="330653262" x="25.314594476600178" y="-611.342024149606" />
<node id="330653267" x="0.06635293748695403" y="-611.2660456858575" />
<node id="330653271" x="-9.887510451953858" y="-509.59824620210566" />
<node id="330653290" x="44.995737857883796" y="-468.3119814558886" />
<node id="330653296" x="141.789616895956" y="-515.9823734648526" />
<node id="330653303" x="132.31175619876012" y="-595.0079793271143" />
<node id="330653324" x="181.2754541109898" y="-358.00388227566145" />
<node id="330653353" x="46.68867392023094" y="-558.0990011470858" />
<node id="330653384" x="478.1936106864596" y="-636.3463624659926" />
<node id="330653399" x="474.07899818522856" y="-811.7061226512305" />
<node id="330653426" x="736.2587522248505" y="-354.4341279703658" />
<node id="330653884" x="-170.71162788727088" y="-594.516008743085" />
<node id="330653893" x="-286.1440924858907" y="-667.3823070803192" />
<node id="330653923" x="-300.33171204588143" y="-761.2687961224001" />
<node id="330653928" x="-349.1662683164468" y="-491.0342754831072" />
<node id="330653958" x="-416.0627342130756" y="-509.3789800822269" />
<node id="330653967" x="-163.4263911305461" y="-811.306436173385" />
<node id="330653976" x="-176.99217491631862" y="-724.2927173515782" />
<node id="330653978" x="-163.12272416532505" y="-760.9529270478524" />
<node id="330653986" x="-118.87531679513631" y="-830.2420727561694" />
<node id="330653996" x="-77.3523334520869" y="-842.709699831903" />
<node id="330653997" x="6.349989979877137" y="-728.8486252438743" />
<node id="330654000" x="81.7142814140534" y="-772.7497066596989" />
<node id="330654003" x="228.11454669764498" y="-832.170331788715" />
<node id="330654005" x="232.9403714776854" y="-933.5350269570481" />
<node id="330654009" x="169.20808044209844" y="-902.0450351901818" />
<node id="330654010" x="47.46025153581286" y="-885.7201471889857" />
<node id="330654012" x="0.5409760581678711" y="-886.0213864841498" />
<node id="330654038" x="-3.27111413347302" y="-1140.082310314756" />
<node id="330654075" x="173.22745495272102" y="-1138.2902594786137" />
<node id="330654081" x="356.87762534659123" y="-1102.4660018580034" />
<node id="330654083" x="465.4961069956771" y="-1099.395885757869" />
<node id="330654107" x="637.2599793281988" y="-1150.2967444516253" />
<node id="330654114" x="592.5796073983656" y="-1043.615186046809" />
<node id="330654123" x="553.3646561633795" y="-944.5809850217775" />
<node id="330654130" x="705.5109307278763" y="-943.5422839245293" />
<node id="330654139" x="354.97105512488633" y="-949.6608534394763" />
<node id="330654144" x="147.51804033917142" y="-1139.9383581508882" />
<node id="330654147" x="122.7357890077983" y="-1244.5320169473998" />
<node id="330654149" x="130.80131220869953" y="-1216.896174253663" />
<node id="330654150" x="270.6804340921226" y="-1212.980608316604" />
<node id="330774715" x="171.33696369209792" y="-395.4550452581607" />
<node id="330774716" x="171.60414807405323" y="-306.51446555648" />
<node id="330779489" x="317.3053613252123" y="-225.75215778243728" />
<node id="330779492" x="374.2923303184798" y="-274.6737492978573" />
<node id="330780144" x="85.54246027057525" y="-740.3897406558972" />
<node id="330780155" x="32.12495281279553" y="-690.8700567132328" />
<node id="330780161" x="42.67455603653798" y="-655.8649461176246" />
<node id="330780167" x="81.02125335350865" y="-635.3098587496206" />
<node id="330780202" x="19.597651619813405" y="-633.4108663238585" />
<node id="330780203" x="74.98002513928805" y="-574.076751362998" />
<node id="330780592" x="317.5088619996677" y="-950.0573275331408" />
<node id="330780864" x="712.1241738596" y="-900.7945693021175" />
<node id="330780866" x="850.9196376998443" y="-903.2321991394274" />
<node id="330780901" x="-1045.6536017104518" y="-835.6067236328963" />
<node id="330783601" x="-553.9607356840861" y="-762.5586985563859" />
<node id="330783605" x="-498.6353537842515" y="-772.7130865645595" />
<node id="330798362" x="-598.3492100391304" y="-389.5820599847939" />
<node id="330798365" x="-630.6867183715221" y="-352.58907657838427" />
<node id="330798589" x="368.80358814436477" y="-948.2313674036413" />
<node id="330798628" x="474.94926390075125" y="-850.7048722370528" />
<node id="330798629" x="559.0517593588447" y="-856.165450749686" />
<node id="330798631" x="686.904997200123" y="-840.0242712311447" />
<node id="330798633" x="633.7852932956885" y="-839.279532391578" />
<node id="330798634" x="633.4504980791826" y="-769.8021548287943" />
<node id="330798635" x="558.2216577410582" y="-781.9198949930724" />
<node id="330798636" x="474.79086734791053" y="-784.0260760032106" />
<node id="670703094" x="-300.75474258878967" y="-667.9243396469392" />
<node id="670703101" x="-205.23675376857864" y="-664.0432086819783" />
<node id="670703151" x="-232.64738018857315" y="-665.309769803891" />
<node id="670703205" x="-168.9054557431955" y="-606.974583651172" />
<node id="670703217" x="-168.83466837526066" y="-612.27235319186" />
<node id="670703264" x="-266.0781007235637" y="-767.4218400784303" />
<node id="672642687" x="-295.1068005740526" y="-482.07343675382435" />
<node id="672642688" x="-297.07860181992874" y="-574.7360339632723" />
<node id="672642689" x="-356.0277719311416" y="-568.7405521078035" />
<node id="2018053792" x="-1043.4336988492869" y="-794.0292582202237" />
<node id="2158634730" x="845.9398545896402" y="-951.1164486939088" />
<node id="2164168453" x="185.49715487705544" y="-1018.0207233058754" />
<node id="2164168463" x="165.73509100545198" y="-996.7380062302109" />
<node id="2164168482" x="-213.89415542944334" y="-596.6197822769172" />
<node id="2164208476" x="839.7272439984954" y="214.2072155533824" />
<node id="2164208484" x="798.236876674986" y="233.54145830543712" />
<node id="2166694704" x="-96.65705724293366" y="-770.5318124119658" />
<node id="2166694709" x="8.447667386964895" y="-759.7997282824945" />
<node id="2166694714" x="-99.49351166607812" y="-732.8431641545612" />
<node id="2166694715" x="-133.68976188643137" y="-675.285411054967" />
<node id="2166694720" x="335.0936356005841" y="-615.8446037475951" />
<node id="2166694724" x="255.18997198791476" y="-606.4807953680865" />
<node id="2166694728" x="124.81075577589218" y="-593.6361657523084" />
<node id="2166694752" x="141.02204142068513" y="-522.3835808129515" />
<node id="2166703022" x="477.1342079291935" y="-682.30689058383" />
<node id="2167078769" x="271.3553233721759" y="-1016.86271803407" />
<node id="2167078770" x="271.6750937770121" y="-957.2524194600992" />
<node id="2167078771" x="47.30442614335334" y="-933.928511923179" />
<node id="2167078772" x="101.04404772544513" y="-930.5731161781587" />
<node id="2167078773" x="231.39979052072158" y="-901.1700028942432" />
<node id="2167078774" x="155.28373936068965" y="-883.4894368539099" />
<node id="2168356812" x="588.182182528486" y="-943.6122513264418" />
<node id="2293922421" x="477.7699392513023" y="-600.3350355823059" />
<node id="3248842465" x="828.3731422970304" y="323.6094403283205" />
<node id="3248842469" x="850.9757684891811" y="316.76251988625154" />
<node id="3248842472" x="914.3737763542449" y="348.5579637209885" />
<node id="3248842473" x="902.9750502554234" y="304.7184954327531" />
<node id="3248842475" x="881.983471159474" y="240.77914543333463" />
<node id="3248842476" x="822.1092831894057" y="310.6220293107908" />
<node id="3248842477" x="847.9253270251793" y="301.22181720659137" />
<node id="3248842479" x="896.8844204766792" y="287.9813498435542" />
<node id="3248845375" x="965.5677782346029" y="976.6570895204786" />
<node id="3263038277" x="925.1241971408017" y="1241.3564559766091" />
<node id="3371735058" x="803.9654058665037" y="863.2359772769269" />
<node id="3371735059" x="795.0795086027938" y="818.3273204627912" />
<node id="3371735060" x="777.9580982163316" y="768.4000648155343" />
<node id="3371735062" x="754.1602621173952" y="694.4381090947427" />
<node id="3371735063" x="742.0520215368597" y="645.4802113245241" />
<node id="3371735080" x="132.50988292496186" y="-193.47835814510472" />
<node id="3371735085" x="770.9768902205979" y="747.595666750567" />
<node id="3371735086" x="790.7252900107414" y="805.6217691819184" />
<node id="3371735087" x="732.6258808783605" y="590.3983487244695" />
<node id="3405055667" x="860.041965295386" y="494.91670031519607" />
<node id="3405055668" x="813.1848676874652" y="485.55622281553224" />
<node id="3405091168" x="366.4863651708001" y="-472.7942378069274" />
<node id="3405118745" x="-27.344196900667157" y="-198.32813673070632" />
<node id="4690195811" x="493.50777921499684" y="-944.4351878664456" />
<node id="4690195816" x="427.95100335468305" y="-946.2629268020391" />
<node id="5391143596" x="-1036.695660397294" y="-711.2131163298618" />
<node id="5391143604" x="-1037.313192282454" y="-718.1124476480763" />
<node id="6590511582" x="4.41258705756627" y="-1026.7002050178126" />
<node id="6773818263" x="566.5822250055498" y="429.0372708926443" />
<node id="6773818264" x="573.2039929270395" y="434.7463389984332" />
<node id="7024847607" x="249.90966126933927" y="-605.9893882530741" />
<node id="7025461280" x="-2.3307645549066365" y="-1025.8062066733837" />
<node id="10038642609" x="687.3728153576958" y="-1039.4301288942806" />
<node id="10038642610" x="660.146386236127" y="-1040.6649652195629" />
<node id="10038642616" x="674.1825639021699" y="-1040.0543424831703" />
</nodes>