<nodes>
<node id="2480551059" x="-387.88665077474434" y="-228.35041514597833" />
<node id="2696640085" x="-210.9987629087409" y="170.78640670329332" />
<node id="2696640091" x="-41.61274681624491" y="-87.1406196593307" />
<node id="2696640097" x="-54.34486298880074" y="-446.6886530476622" />
<node id="2696640112" x="100.01815518026706" y="-249.55093013122678" />
<node id="2696640120" x="469.29163029859774" y="-117.0647865314968" />
<node id="2696640125" x="412.01654830330517" y="56.511418872047216" />
<node id="2696640149" x="284.4154521996388" y="230.78816318931058" />
<node id="2696640159" x="68.06414567225147" y="238.35943364351988" />
<node id="2696640184" x="229.32542618457228" y="472.79752916283906" />
<node id="2696640193" x="-8.323099785018712" y="228.57964378455654" />
<node id="2696640197" x="-108.6439373641042" y="563.2238440527581" />
<node id="2696640198" x="4.29779789224267" y="587.7372256917879" />
<node id="2696640199" x="-132.73800300213043" y="660.2624027188867" />
<node id="2696640204" x="-351.9476823764853" y="127.38664233451709" />
<node id="2696640211" x="-515.8228434504708" y="131.97401021281257" />
<node id="2696640227" x="-400.01265587832313" y="-360.2393098049797" />
<node id="2696640229" x="-54.91751931107137" y="-396.29942050855607" />
<node id="2696640231" x="-159.73393229523208" y="-432.8330519576557" />
<node id="2696640232" x="-199.08332869026344" y="-429.7406430663541" />
<node id="2696640233" x="-191.89420327788685" y="-245.8744749194011" />
<node id="2696640240" x="-205.99970084324013" y="-559.1467000460252" />
<node id="2696640241" x="97.35693288932089" y="-366.14680142560974" />
<node id="2696640242" x="-53.39394386194181" y="-358.494367568288" />
<node id="2696640245" x="406.98827512876596" y="-374.75007317308336" />
<node id="2696640252" x="383.006066789967" y="-216.80969948740676" />
<node id="2696640253" x="199.0106387337437" y="-249.0753357289359" />
<node id="2932867527" x="198.30417470959947" y="-367.9852621983737" />
<node id="3150625362" x="-316.9314739515539" y="-243.52926656836644" />
<node id="3150625372" x="-74.7757346049184" y="-253.63225653395057" />
<node id="3150629367" x="464.8036373525392" y="-150.75105273909867" />
<node id="3150629379" x="-14.744528482086025" y="-255.09378179721534" />
<node id="3150655661" x="-48.79985292209312" y="-225.66270111966878" />
<node id="3150655662" x="-48.35339350521099" y="-277.5640197247267" />
<node id="3150667036" x="-52.346211351803504" y="-245.73374697566032" />
<node id="3150667037" x="-39.5773834210122" y="-258.182279674802" />
<node id="3150667040" x="-55.46513237815816" y="-250.1392656136304" />
<node id="3150667042" x="-38.44936891179532" y="-249.59977972367778" />
<node id="3150667044" x="-44.665047816815786" y="-261.5944735482335" />
<node id="3150667046" x="-43.67473517579492" y="-244.47244729893282" />
<node id="3150667047" x="-55.24418389762286" y="-256.2247452749871" />
<node id="3150779078" x="202.05117707967293" y="-47.83840637514368" />
<node id="3150779081" x="168.52195262967143" y="-55.395962700713426" />
<node id="3150779090" x="68.63779338763561" y="-85.27299559349194" />
<node id="3150779096" x="-1.3620643396861851" y="-86.51508170133457" />
<node id="3150780484" x="422.5167997999815" y="17.090049516875297" />
<node id="3150782041" x="483.3353404357331" y="-139.77662393683568" />
<node id="3150782042" x="482.10839899093844" y="-145.1885881824419" />
<node id="3150782045" x="469.7378804475302" y="-143.18190599791706" />
<node id="3150782048" x="480.251239026431" y="-135.20570214418694" />
<node id="3150782050" x="472.37417597253807" y="-135.37117848265916" />
<node id="3150782055" x="472.68642592721153" y="-146.97961110342294" />
<node id="3151139979" x="-357.018062582938" y="-231.09093595203012" />
<node id="3151139980" x="-355.8728033658117" y="-241.63543820241466" />
<node id="3151139986" x="-349.23535327927675" y="-233.32489753421396" />
<node id="3151139987" x="-351.9955167918233" y="-230.85363471182063" />
<node id="3151139990" x="-358.5449745672522" y="-232.2832042677328" />
<node id="3151139993" x="-349.5836320677772" y="-239.46906633954495" />
<node id="3151139994" x="-359.57141980645247" y="-238.37786415591836" />
<node id="3151186087" x="-454.0260313093895" y="-50.90011011948809" />
<node id="3151186102" x="-356.0267804042669" y="-203.99476413149387" />
<node id="3151186105" x="-397.14322764775716" y="-92.17311948351562" />
<node id="3151186111" x="-372.04089369555004" y="-119.8000242644921" />
<node id="3151213301" x="-509.2417087991489" y="130.59733050176874" />
<node id="3151221027" x="-382.31506830244325" y="-90.79048765730113" />
<node id="3151222095" x="-373.78962639172096" y="-99.87343381112441" />
<node id="3151260025" x="26.51116441760678" y="-113.53883743612096" />
<node id="3151260037" x="69.89598272752482" y="-126.38086051633582" />
<node id="3151260042" x="68.88173546514008" y="-24.72244934272021" />
<node id="3151265069" x="99.37386453791987" y="-123.05299274949357" />
<node id="3151265073" x="125.61241921444889" y="-72.91997655900195" />
<node id="3151265680" x="-2.1066037490963936" y="-130.28065620409325" />
<node id="3151265684" x="-45.59327913343441" y="-165.9917736412026" />
<node id="3151276099" x="-2.3039704263210297" y="-252.97197399800643" />
<node id="3151288279" x="-50.29602083808277" y="-68.7311478885822" />
<node id="3151296082" x="137.5528155999491" y="-32.544556160923094" />
<node id="3151297655" x="132.70397944876458" y="-70.36696198163554" />
<node id="3151321856" x="489.1325345522491" y="-130.00000488944352" />
<node id="3151322262" x="525.5156488227658" y="-97.9607710330747" />
<node id="3151322287" x="593.944538258831" y="13.028678075410426" />
<node id="3151340939" x="-85.20792149740737" y="-253.32912274450064" />
<node id="3151341415" x="-142.11648665531538" y="-247.605868706014" />
<node id="3151341417" x="-193.296735148062" y="-283.51000093482435" />
<node id="3151341422" x="-137.56356942362618" y="-282.8725256524049" />
<node id="3636987719" x="255.91288299963344" y="-449.38920844579116" />
<node id="3636987720" x="252.63556786742993" y="-505.43412738945335" />
<node id="3636987738" x="86.6893769192975" y="-648.9892414873466" />
<node id="3636987741" x="295.33326206495985" y="-667.7733781100251" />
<node id="5496019084" x="206.43989201588556" y="494.5543734389357" />
<node id="5496019085" x="286.47365520964377" y="583.5784505242482" />
<node id="5496019088" x="359.94916133384686" y="345.3171206912957" />
<node id="5496022439" x="78.93411067582201" y="613.5607276060618" />
<node id="5601335996" x="-52.482217915239744" y="-259.9163242452778" />
<node id="7649981517" x="297.19508138869423" y="259.7018685583025" />
<node id="7649981519" x="273.0333318480989" y="343.5464555514045" />
<node id="7649981526" x="187.30406803172082" y="441.22719194274396" />
<node id="7650047992" x="301.0050561084645" y="228.6436397265643" />
<node id="9767504432" x="-23.069518608157523" y="-636.8091793451458" />
<node id="9767504435" x="-10.972877569496632" y="-478.5590091329068" />
<node id="9767517212" x="-435.7332752268994" y="-213.0337625835091" />
<node id="9767517213" x="-503.6501110951649" y="-317.5234570642933" />
<node id="9767771906" x="-568.3406190035166" y="254.30454937415197" />
<node id="9767771907" x="-600.6207994594006" y="255.55661620665342" />
<node id="9767771908" x="-549.6022898814408" y="251.68025622004643" />
<node id="9767776320" x="-271.84537387336604" y="274.6663755518384" />
<node id="9767776343" x="-95.41411870101001" y="503.6451052413322" />
<node id="9767776374" x="-10.459490084438585" y="674.9146046889946" />
<node id="9767801400" x="94.33163599960972" y="-476.361207716167" />
<node id="9767801405" x="-232.64803045766894" y="0.5355870886705816" />
<node id="9767801406" x="-380.7111107070232" y="9.20263275783509" />
<node id="9767801409" x="-109.62479511706624" y="19.698073969688267" />
<node id="9767801410" x="-236.43399179226253" y="-96.08431971212849" />
<node id="9767801414" x="-234.64284609665629" y="-249.8572834781371" />
<node id="9767801418" x="-373.8176896866644" y="-426.670455864165" />
<node id="9857899039" x="361.0449033054756" y="224.83250655885786" />
<node id="9907507282" x="135.47120078688022" y="-137.57620802149177" />
<node id="9907507283" x="139.99016393732745" y="-249.35356594715267" />
<node id="9907507285" x="159.55457756051328" y="-34.55292055523023" />
<node id="9907507288" x="279.0077611632878" y="47.19863047869876" />
<node id="9907507290" x="303.59400559042115" y="54.28693563584238" />
<node id="9907507291" x="216.31816758785862" y="62.10489532491192" />
<node id="9907507292" x="169.65354310756084" y="54.31600133748725" />
<node id="9907507293" x="244.13376578188036" y="59.62198026338592" />
<node id="9907507294" x="243.34390901017468" y="49.52795613463968" />
<node id="9907507295" x="279.761411725427" y="56.42635004920885" />
<node id="9907507621" x="406.92173632152844" y="73.32472028210759" />
<node id="9907507623" x="518.1708103992278" y="81.94563810247928" />
<node id="9907507624" x="-160.68020920699928" y="-246.96373884333298" />
<node id="9907507625" x="-158.5051244761562" y="-212.7481301240623" />
<node id="9907507627" x="-234.6685999215115" y="-213.10092522809282" />
<node id="9907507631" x="-234.71633829572238" y="-125.9082414531149" />
<node id="9907507632" x="-235.76473170460667" y="-46.218615828081965" />
</nodes>