<connections>
<connection from="301037306to250078367" to="250078367to5495470092" />
<connection from="301037306to250078367" to="250078367to5457772558" />
<connection from="301037306to250078367" to="250078367to301037306" />
<connection from="301037306to250078367" to="250078367to5495470087" />
<connection from="5457772558to250078367" to="250078367to5495470092" />
<connection from="5457772558to250078367" to="250078367to5457772558" />
<connection from="5457772558to250078367" to="250078367to301037306" />
<connection from="5457772558to250078367" to="250078367to5495470087" />
<connection from="5495470087to250078367" to="250078367to5495470092" />
<connection from="5495470087to250078367" to="250078367to5457772558" />
<connection from="5495470087to250078367" to="250078367to301037306" />
<connection from="5495470087to250078367" to="250078367to5495470087" />
<connection from="5495470092to250078367" to="250078367to5495470092" />
<connection from="5495470092to250078367" to="250078367to5457772558" />
<connection from="5495470092to250078367" to="250078367to301037306" />
<connection from="5495470092to250078367" to="250078367to5495470087" />
<connection from="301037295to301037269" to="301037269to301037295" />
<connection from="301037295to301037269" to="301037269to910664969" />
<connection from="301037295to301037269" to="301037269to2102480798" />
<connection from="910664969to301037269" to="301037269to301037295" />
<connection from="910664969to301037269" to="301037269to910664969" />
<connection from="910664969to301037269" to="301037269to2102480798" />
<connection from="2102480798to301037269" to="301037269to301037295" />
<connection from="2102480798to301037269" to="301037269to910664969" />
<connection from="2102480798to301037269" to="301037269to2102480798" />
<connection from="301037295to301037275" to="301037275to910664797" />
<connection from="301037295to301037275" to="301037275to301037313" />
<connection from="301037295to301037275" to="301037275to301037295" />
<connection from="301037295to301037275" to="301037275to910665361" />
<connection from="301037313to301037275" to="301037275to910664797" />
<connection from="301037313to301037275" to="301037275to301037313" />
<connection from="301037313to301037275" to="301037275to301037295" />
<connection from="301037313to301037275" to="301037275to910665361" />
<connection from="910664797to301037275" to="301037275to910664797" />
<connection from="910664797to301037275" to="301037275to301037313" />
<connection from="910664797to301037275" to="301037275to301037295" />
<connection from="910664797to301037275" to="301037275to910665361" />
<connection from="910665361to301037275" to="301037275to910664797" />
<connection from="910665361to301037275" to="301037275to301037313" />
<connection from="910665361to301037275" to="301037275to301037295" />
<connection from="910665361to301037275" to="301037275to910665361" />
<connection from="910665402to301037285" to="301037285to910665402" />
<connection from="910665402to301037285" to="301037285to6596217462" />
<connection from="6596217462to301037285" to="301037285to910665402" />
<connection from="6596217462to301037285" to="301037285to6596217462" />
<connection from="301037269to301037295" to="301037295to301037269" />
<connection from="301037269to301037295" to="301037295to910664969" />
<connection from="301037269to301037295" to="301037295to301037275" />
<connection from="301037269to301037295" to="301037295to560224231" />
<connection from="301037275to301037295" to="301037295to301037269" />
<connection from="301037275to301037295" to="301037295to910664969" />
<connection from="301037275to301037295" to="301037295to301037275" />
<connection from="301037275to301037295" to="301037295to560224231" />
<connection from="560224231to301037295" to="301037295to301037269" />
<connection from="560224231to301037295" to="301037295to910664969" />
<connection from="560224231to301037295" to="301037295to301037275" />
<connection from="560224231to301037295" to="301037295to560224231" />
<connection from="910664969to301037295" to="301037295to301037269" />
<connection from="910664969to301037295" to="301037295to910664969" />
<connection from="910664969to301037295" to="301037295to301037275" />
<connection from="910664969to301037295" to="301037295to560224231" />
<connection from="250078367to301037306" to="301037306to250078367" />
<connection from="250078367to301037306" to="301037306to3742620469" />
<connection from="250078367to301037306" to="301037306to4233648177" />
<connection from="250078367to301037306" to="301037306to5457772558" />
<connection from="3742620469to301037306" to="301037306to250078367" />
<connection from="3742620469to301037306" to="301037306to3742620469" />
<connection from="3742620469to301037306" to="301037306to4233648177" />
<connection from="3742620469to301037306" to="301037306to5457772558" />
<connection from="4233648177to301037306" to="301037306to250078367" />
<connection from="4233648177to301037306" to="301037306to3742620469" />
<connection from="4233648177to301037306" to="301037306to4233648177" />
<connection from="4233648177to301037306" to="301037306to5457772558" />
<connection from="5457772558to301037306" to="301037306to250078367" />
<connection from="5457772558to301037306" to="301037306to3742620469" />
<connection from="5457772558to301037306" to="301037306to4233648177" />
<connection from="5457772558to301037306" to="301037306to5457772558" />
<connection from="301037275to301037313" to="301037313to301037275" />
<connection from="301037275to301037313" to="301037313to560224231" />
<connection from="301037275to301037313" to="301037313to910664831" />
<connection from="301037275to301037313" to="301037313to910665134" />
<connection from="560224231to301037313" to="301037313to301037275" />
<connection from="560224231to301037313" to="301037313to560224231" />
<connection from="560224231to301037313" to="301037313to910664831" />
<connection from="560224231to301037313" to="301037313to910665134" />
<connection from="910664831to301037313" to="301037313to301037275" />
<connection from="910664831to301037313" to="301037313to560224231" />
<connection from="910664831to301037313" to="301037313to910664831" />
<connection from="910664831to301037313" to="301037313to910665134" />
<connection from="910665134to301037313" to="301037313to301037275" />
<connection from="910665134to301037313" to="301037313to560224231" />
<connection from="910665134to301037313" to="301037313to910664831" />
<connection from="910665134to301037313" to="301037313to910665134" />
<connection from="388048381to388048380" to="388048380to2102480322" />
<connection from="388048381to388048380" to="388048380to4233654377" />
<connection from="388048381to388048380" to="388048380to388048381" />
<connection from="388048381to388048380" to="388048380to4233713905" />
<connection from="2102480322to388048380" to="388048380to2102480322" />
<connection from="2102480322to388048380" to="388048380to4233654377" />
<connection from="2102480322to388048380" to="388048380to388048381" />
<connection from="2102480322to388048380" to="388048380to4233713905" />
<connection from="4233654377to388048380" to="388048380to2102480322" />
<connection from="4233654377to388048380" to="388048380to4233654377" />
<connection from="4233654377to388048380" to="388048380to388048381" />
<connection from="4233654377to388048380" to="388048380to4233713905" />
<connection from="4233713905to388048380" to="388048380to2102480322" />
<connection from="4233713905to388048380" to="388048380to4233654377" />
<connection from="4233713905to388048380" to="388048380to388048381" />
<connection from="4233713905to388048380" to="388048380to4233713905" />
<connection from="388048380to388048381" to="388048381to388048380" />
<connection from="388048380to388048381" to="388048381to4233654399" />
<connection from="388048380to388048381" to="388048381to388048386" />
<connection from="388048386to388048381" to="388048381to388048380" />
<connection from="388048386to388048381" to="388048381to4233654399" />
<connection from="388048386to388048381" to="388048381to388048386" />
<connection from="4233654399to388048381" to="388048381to388048380" />
<connection from="4233654399to388048381" to="388048381to4233654399" />
<connection from="4233654399to388048381" to="388048381to388048386" />
<connection from="388048381to388048386" to="388048386to388048381" />
<connection from="388048381to388048386" to="388048386to4233654379" />
<connection from="4233654379to388048386" to="388048386to388048381" />
<connection from="4233654379to388048386" to="388048386to4233654379" />
<connection from="4233527036to560224224" to="560224224to6596217466" />
<connection from="4233527036to560224224" to="560224224to4233527036" />
<connection from="6596217466to560224224" to="560224224to6596217466" />
<connection from="6596217466to560224224" to="560224224to4233527036" />
<connection from="301037295to560224231" to="560224231to301037313" />
<connection from="301037295to560224231" to="560224231to910665302" />
<connection from="301037295to560224231" to="560224231to301037295" />
<connection from="301037295to560224231" to="560224231to910664896" />
<connection from="301037313to560224231" to="560224231to301037313" />
<connection from="301037313to560224231" to="560224231to910665302" />
<connection from="301037313to560224231" to="560224231to301037295" />
<connection from="301037313to560224231" to="560224231to910664896" />
<connection from="910664896to560224231" to="560224231to301037313" />
<connection from="910664896to560224231" to="560224231to910665302" />
<connection from="910664896to560224231" to="560224231to301037295" />
<connection from="910664896to560224231" to="560224231to910664896" />
<connection from="910665302to560224231" to="560224231to301037313" />
<connection from="910665302to560224231" to="560224231to910665302" />
<connection from="910665302to560224231" to="560224231to301037295" />
<connection from="910665302to560224231" to="560224231to910664896" />
<connection from="4233524630to564483317" to="564483317to4233524655" />
<connection from="4233524630to564483317" to="564483317to4233524647" />
<connection from="4233524630to564483317" to="564483317to4233524630" />
<connection from="4233524647to564483317" to="564483317to4233524655" />
<connection from="4233524647to564483317" to="564483317to4233524647" />
<connection from="4233524647to564483317" to="564483317to4233524630" />
<connection from="4233524655to564483317" to="564483317to4233524655" />
<connection from="4233524655to564483317" to="564483317to4233524647" />
<connection from="4233524655to564483317" to="564483317to4233524630" />
<connection from="2009503273to565507031" to="565507031to9782043717" />
<connection from="2009503273to565507031" to="565507031to2009503273" />
<connection from="2009503273to565507031" to="565507031to4233126893" />
<connection from="4233126893to565507031" to="565507031to9782043717" />
<connection from="4233126893to565507031" to="565507031to2009503273" />
<connection from="4233126893to565507031" to="565507031to4233126893" />
<connection from="9782043717to565507031" to="565507031to9782043717" />
<connection from="9782043717to565507031" to="565507031to2009503273" />
<connection from="9782043717to565507031" to="565507031to4233126893" />
<connection from="2009503256to565507035" to="565507035to2009503256" />
<connection from="2009503256to565507035" to="565507035to2009503273" />
<connection from="2009503256to565507035" to="565507035to2009503262" />
<connection from="2009503256to565507035" to="565507035to9782043717" />
<connection from="2009503262to565507035" to="565507035to2009503256" />
<connection from="2009503262to565507035" to="565507035to2009503273" />
<connection from="2009503262to565507035" to="565507035to2009503262" />
<connection from="2009503262to565507035" to="565507035to9782043717" />
<connection from="2009503273to565507035" to="565507035to2009503256" />
<connection from="2009503273to565507035" to="565507035to2009503273" />
<connection from="2009503273to565507035" to="565507035to2009503262" />
<connection from="2009503273to565507035" to="565507035to9782043717" />
<connection from="9782043717to565507035" to="565507035to2009503256" />
<connection from="9782043717to565507035" to="565507035to2009503273" />
<connection from="9782043717to565507035" to="565507035to2009503262" />
<connection from="9782043717to565507035" to="565507035to9782043717" />
<connection from="6657298611to565507037" to="565507037to6657298611" />
<connection from="6657298611to565507037" to="565507037to9782043719" />
<connection from="6657298611to565507037" to="565507037to6657298613" />
<connection from="6657298611to565507037" to="565507037to7036718555" />
<connection from="6657298613to565507037" to="565507037to6657298611" />
<connection from="6657298613to565507037" to="565507037to9782043719" />
<connection from="6657298613to565507037" to="565507037to6657298613" />
<connection from="6657298613to565507037" to="565507037to7036718555" />
<connection from="7036718555to565507037" to="565507037to6657298611" />
<connection from="7036718555to565507037" to="565507037to9782043719" />
<connection from="7036718555to565507037" to="565507037to6657298613" />
<connection from="7036718555to565507037" to="565507037to7036718555" />
<connection from="9782043719to565507037" to="565507037to6657298611" />
<connection from="9782043719to565507037" to="565507037to9782043719" />
<connection from="9782043719to565507037" to="565507037to6657298613" />
<connection from="9782043719to565507037" to="565507037to7036718555" />
<connection from="2009503166to566993232" to="566993232to9837660586" />
<connection from="2009503166to566993232" to="566993232to2009503166" />
<connection from="9837660586to566993232" to="566993232to9837660586" />
<connection from="9837660586to566993232" to="566993232to2009503166" />
<connection from="301037275to910664797" to="910664797to301037275" />
<connection from="301037275to910664797" to="910664797to3626033097" />
<connection from="301037275to910664797" to="910664797to5485189773" />
<connection from="3626033097to910664797" to="910664797to301037275" />
<connection from="3626033097to910664797" to="910664797to3626033097" />
<connection from="3626033097to910664797" to="910664797to5485189773" />
<connection from="5485189773to910664797" to="910664797to301037275" />
<connection from="5485189773to910664797" to="910664797to3626033097" />
<connection from="5485189773to910664797" to="910664797to5485189773" />
<connection from="301037313to910664831" to="910664831to301037313" />
<connection from="301037313to910664831" to="910664831to5485189772" />
<connection from="5485189772to910664831" to="910664831to301037313" />
<connection from="5485189772to910664831" to="910664831to5485189772" />
<connection from="560224231to910664896" to="910664896to560224231" />
<connection from="560224231to910664896" to="910664896to910665302" />
<connection from="910665302to910664896" to="910664896to560224231" />
<connection from="910665302to910664896" to="910664896to910665302" />
<connection from="4233527036to910664903" to="910664903to4233527036" />
<connection from="4233527036to910664903" to="910664903to5548729337" />
<connection from="5548729337to910664903" to="910664903to4233527036" />
<connection from="5548729337to910664903" to="910664903to5548729337" />
<connection from="910665402to910664945" to="910664945to3626033118" />
<connection from="910665402to910664945" to="910664945to910665402" />
<connection from="3626033118to910664945" to="910664945to3626033118" />
<connection from="3626033118to910664945" to="910664945to910665402" />
<connection from="301037269to910664969" to="910664969to301037269" />
<connection from="301037269to910664969" to="910664969to301037295" />
<connection from="301037269to910664969" to="910664969to5548729337" />
<connection from="301037295to910664969" to="910664969to301037269" />
<connection from="301037295to910664969" to="910664969to301037295" />
<connection from="301037295to910664969" to="910664969to5548729337" />
<connection from="5548729337to910664969" to="910664969to301037269" />
<connection from="5548729337to910664969" to="910664969to301037295" />
<connection from="5548729337to910664969" to="910664969to5548729337" />
<connection from="301037313to910665134" to="910665134to301037313" />
<connection from="301037313to910665134" to="910665134to5485189772" />
<connection from="301037313to910665134" to="910665134to6404933451" />
<connection from="5485189772to910665134" to="910665134to301037313" />
<connection from="5485189772to910665134" to="910665134to5485189772" />
<connection from="5485189772to910665134" to="910665134to6404933451" />
<connection from="6404933451to910665134" to="910665134to301037313" />
<connection from="6404933451to910665134" to="910665134to5485189772" />
<connection from="6404933451to910665134" to="910665134to6404933451" />
<connection from="560224231to910665302" to="910665302to560224231" />
<connection from="560224231to910665302" to="910665302to910664896" />
<connection from="560224231to910665302" to="910665302to4233713969" />
<connection from="910664896to910665302" to="910665302to560224231" />
<connection from="910664896to910665302" to="910665302to910664896" />
<connection from="910664896to910665302" to="910665302to4233713969" />
<connection from="4233713969to910665302" to="910665302to560224231" />
<connection from="4233713969to910665302" to="910665302to910664896" />
<connection from="4233713969to910665302" to="910665302to4233713969" />
<connection from="3626033118to910665341" to="910665341to5548729337" />
<connection from="3626033118to910665341" to="910665341to3626033121" />
<connection from="3626033118to910665341" to="910665341to3626033118" />
<connection from="3626033121to910665341" to="910665341to5548729337" />
<connection from="3626033121to910665341" to="910665341to3626033121" />
<connection from="3626033121to910665341" to="910665341to3626033118" />
<connection from="5548729337to910665341" to="910665341to5548729337" />
<connection from="5548729337to910665341" to="910665341to3626033121" />
<connection from="5548729337to910665341" to="910665341to3626033118" />
<connection from="301037275to910665361" to="910665361to5485189773" />
<connection from="301037275to910665361" to="910665361to301037275" />
<connection from="301037275to910665361" to="910665361to6474960124" />
<connection from="5485189773to910665361" to="910665361to5485189773" />
<connection from="5485189773to910665361" to="910665361to301037275" />
<connection from="5485189773to910665361" to="910665361to6474960124" />
<connection from="6474960124to910665361" to="910665361to5485189773" />
<connection from="6474960124to910665361" to="910665361to301037275" />
<connection from="6474960124to910665361" to="910665361to6474960124" />
<connection from="301037285to910665402" to="910665402to301037285" />
<connection from="301037285to910665402" to="910665402to910664945" />
<connection from="301037285to910665402" to="910665402to3626040092" />
<connection from="910664945to910665402" to="910665402to301037285" />
<connection from="910664945to910665402" to="910665402to910664945" />
<connection from="910664945to910665402" to="910665402to3626040092" />
<connection from="3626040092to910665402" to="910665402to301037285" />
<connection from="3626040092to910665402" to="910665402to910664945" />
<connection from="3626040092to910665402" to="910665402to3626040092" />
<connection from="4233654524to1130872481" to="1130872481to4233654581" />
<connection from="4233654524to1130872481" to="1130872481to4233654524" />
<connection from="4233654524to1130872481" to="1130872481to9832569149" />
<connection from="4233654581to1130872481" to="1130872481to4233654581" />
<connection from="4233654581to1130872481" to="1130872481to4233654524" />
<connection from="4233654581to1130872481" to="1130872481to9832569149" />
<connection from="9832569149to1130872481" to="1130872481to4233654581" />
<connection from="9832569149to1130872481" to="1130872481to4233654524" />
<connection from="9832569149to1130872481" to="1130872481to9832569149" />
<connection from="2009503169to1147571742" to="1147571742to4233654585" />
<connection from="2009503169to1147571742" to="1147571742to5457772589" />
<connection from="2009503169to1147571742" to="1147571742to2009503169" />
<connection from="2009503169to1147571742" to="1147571742to4233654495" />
<connection from="4233654495to1147571742" to="1147571742to4233654585" />
<connection from="4233654495to1147571742" to="1147571742to5457772589" />
<connection from="4233654495to1147571742" to="1147571742to2009503169" />
<connection from="4233654495to1147571742" to="1147571742to4233654495" />
<connection from="4233654585to1147571742" to="1147571742to4233654585" />
<connection from="4233654585to1147571742" to="1147571742to5457772589" />
<connection from="4233654585to1147571742" to="1147571742to2009503169" />
<connection from="4233654585to1147571742" to="1147571742to4233654495" />
<connection from="5457772589to1147571742" to="1147571742to4233654585" />
<connection from="5457772589to1147571742" to="1147571742to5457772589" />
<connection from="5457772589to1147571742" to="1147571742to2009503169" />
<connection from="5457772589to1147571742" to="1147571742to4233654495" />
<connection from="4233654398to1901092130" to="1901092130to4233654402" />
<connection from="4233654398to1901092130" to="1901092130to4233654398" />
<connection from="4233654398to1901092130" to="1901092130to4233654406" />
<connection from="4233654398to1901092130" to="1901092130to9834969315" />
<connection from="4233654402to1901092130" to="1901092130to4233654402" />
<connection from="4233654402to1901092130" to="1901092130to4233654398" />
<connection from="4233654402to1901092130" to="1901092130to4233654406" />
<connection from="4233654402to1901092130" to="1901092130to9834969315" />
<connection from="4233654406to1901092130" to="1901092130to4233654402" />
<connection from="4233654406to1901092130" to="1901092130to4233654398" />
<connection from="4233654406to1901092130" to="1901092130to4233654406" />
<connection from="4233654406to1901092130" to="1901092130to9834969315" />
<connection from="9834969315to1901092130" to="1901092130to4233654402" />
<connection from="9834969315to1901092130" to="1901092130to4233654398" />
<connection from="9834969315to1901092130" to="1901092130to4233654406" />
<connection from="9834969315to1901092130" to="1901092130to9834969315" />
<connection from="4233654409to1901092237" to="1901092237to4233654484" />
<connection from="4233654409to1901092237" to="1901092237to5553734986" />
<connection from="4233654409to1901092237" to="1901092237to4233654409" />
<connection from="4233654409to1901092237" to="1901092237to4233654442" />
<connection from="4233654442to1901092237" to="1901092237to4233654484" />
<connection from="4233654442to1901092237" to="1901092237to5553734986" />
<connection from="4233654442to1901092237" to="1901092237to4233654409" />
<connection from="4233654442to1901092237" to="1901092237to4233654442" />
<connection from="4233654484to1901092237" to="1901092237to4233654484" />
<connection from="4233654484to1901092237" to="1901092237to5553734986" />
<connection from="4233654484to1901092237" to="1901092237to4233654409" />
<connection from="4233654484to1901092237" to="1901092237to4233654442" />
<connection from="5553734986to1901092237" to="1901092237to4233654484" />
<connection from="5553734986to1901092237" to="1901092237to5553734986" />
<connection from="5553734986to1901092237" to="1901092237to4233654409" />
<connection from="5553734986to1901092237" to="1901092237to4233654442" />
<connection from="566993232to2009503166" to="2009503166to566993232" />
<connection from="566993232to2009503166" to="2009503166to2009503172" />
<connection from="2009503172to2009503166" to="2009503166to566993232" />
<connection from="2009503172to2009503166" to="2009503166to2009503172" />
<connection from="1147571742to2009503169" to="2009503169to1147571742" />
<connection from="1147571742to2009503169" to="2009503169to2009503172" />
<connection from="1147571742to2009503169" to="2009503169to4233654581" />
<connection from="2009503172to2009503169" to="2009503169to1147571742" />
<connection from="2009503172to2009503169" to="2009503169to2009503172" />
<connection from="2009503172to2009503169" to="2009503169to4233654581" />
<connection from="4233654581to2009503169" to="2009503169to1147571742" />
<connection from="4233654581to2009503169" to="2009503169to2009503172" />
<connection from="4233654581to2009503169" to="2009503169to4233654581" />
<connection from="2009503166to2009503172" to="2009503172to2009503169" />
<connection from="2009503166to2009503172" to="2009503172to2009503166" />
<connection from="2009503166to2009503172" to="2009503172to9837660586" />
<connection from="2009503166to2009503172" to="2009503172to5457772594" />
<connection from="2009503169to2009503172" to="2009503172to2009503169" />
<connection from="2009503169to2009503172" to="2009503172to2009503166" />
<connection from="2009503169to2009503172" to="2009503172to9837660586" />
<connection from="2009503169to2009503172" to="2009503172to5457772594" />
<connection from="5457772594to2009503172" to="2009503172to2009503169" />
<connection from="5457772594to2009503172" to="2009503172to2009503166" />
<connection from="5457772594to2009503172" to="2009503172to9837660586" />
<connection from="5457772594to2009503172" to="2009503172to5457772594" />
<connection from="9837660586to2009503172" to="2009503172to2009503169" />
<connection from="9837660586to2009503172" to="2009503172to2009503166" />
<connection from="9837660586to2009503172" to="2009503172to9837660586" />
<connection from="9837660586to2009503172" to="2009503172to5457772594" />
<connection from="4233527037to2009503212" to="2009503212to6434773507" />
<connection from="4233527037to2009503212" to="2009503212to4233527037" />
<connection from="4233527037to2009503212" to="2009503212to6434773522" />
<connection from="6434773507to2009503212" to="2009503212to6434773507" />
<connection from="6434773507to2009503212" to="2009503212to4233527037" />
<connection from="6434773507to2009503212" to="2009503212to6434773522" />
<connection from="6434773522to2009503212" to="2009503212to6434773507" />
<connection from="6434773522to2009503212" to="2009503212to4233527037" />
<connection from="6434773522to2009503212" to="2009503212to6434773522" />
<connection from="4233527037to2009503218" to="2009503218to4233527037" />
<connection from="4233527037to2009503218" to="2009503218to4233527040" />
<connection from="4233527037to2009503218" to="2009503218to4233527068" />
<connection from="4233527040to2009503218" to="2009503218to4233527037" />
<connection from="4233527040to2009503218" to="2009503218to4233527040" />
<connection from="4233527040to2009503218" to="2009503218to4233527068" />
<connection from="4233527068to2009503218" to="2009503218to4233527037" />
<connection from="4233527068to2009503218" to="2009503218to4233527040" />
<connection from="4233527068to2009503218" to="2009503218to4233527068" />
<connection from="2009503247to2009503244" to="2009503244to4233527084" />
<connection from="2009503247to2009503244" to="2009503244to2009503247" />
<connection from="2009503247to2009503244" to="2009503244to4233527088" />
<connection from="4233527084to2009503244" to="2009503244to4233527084" />
<connection from="4233527084to2009503244" to="2009503244to2009503247" />
<connection from="4233527084to2009503244" to="2009503244to4233527088" />
<connection from="4233527088to2009503244" to="2009503244to4233527084" />
<connection from="4233527088to2009503244" to="2009503244to2009503247" />
<connection from="4233527088to2009503244" to="2009503244to4233527088" />
<connection from="2009503244to2009503247" to="2009503247to2009503244" />
<connection from="2009503244to2009503247" to="2009503247to9835570304" />
<connection from="2009503244to2009503247" to="2009503247to6436259789" />
<connection from="2009503244to2009503247" to="2009503247to4233301013" />
<connection from="4233301013to2009503247" to="2009503247to2009503244" />
<connection from="4233301013to2009503247" to="2009503247to9835570304" />
<connection from="4233301013to2009503247" to="2009503247to6436259789" />
<connection from="4233301013to2009503247" to="2009503247to4233301013" />
<connection from="6436259789to2009503247" to="2009503247to2009503244" />
<connection from="6436259789to2009503247" to="2009503247to9835570304" />
<connection from="6436259789to2009503247" to="2009503247to6436259789" />
<connection from="6436259789to2009503247" to="2009503247to4233301013" />
<connection from="9835570304to2009503247" to="2009503247to2009503244" />
<connection from="9835570304to2009503247" to="2009503247to9835570304" />
<connection from="9835570304to2009503247" to="2009503247to6436259789" />
<connection from="9835570304to2009503247" to="2009503247to4233301013" />
<connection from="2009503273to2009503253" to="2009503253to2009503273" />
<connection from="2009503273to2009503253" to="2009503253to2009503278" />
<connection from="2009503273to2009503253" to="2009503253to6436259789" />
<connection from="2009503278to2009503253" to="2009503253to2009503273" />
<connection from="2009503278to2009503253" to="2009503253to2009503278" />
<connection from="2009503278to2009503253" to="2009503253to6436259789" />
<connection from="6436259789to2009503253" to="2009503253to2009503273" />
<connection from="6436259789to2009503253" to="2009503253to2009503278" />
<connection from="6436259789to2009503253" to="2009503253to6436259789" />
<connection from="565507035to2009503256" to="2009503256to565507035" />
<connection from="565507035to2009503256" to="2009503256to4233527088" />
<connection from="565507035to2009503256" to="2009503256to2009503262" />
<connection from="2009503262to2009503256" to="2009503256to565507035" />
<connection from="2009503262to2009503256" to="2009503256to4233527088" />
<connection from="2009503262to2009503256" to="2009503256to2009503262" />
<connection from="4233527088to2009503256" to="2009503256to565507035" />
<connection from="4233527088to2009503256" to="2009503256to4233527088" />