<nodes>
<node id="250078367" x="759.519505176926" y="-858.0696168751456" />
<node id="301037269" x="1105.0667222968768" y="17.081927632912993" />
<node id="301037275" x="1139.183088487247" y="101.3237621113658" />
<node id="301037285" x="-199.71140990091953" y="536.5637284396216" />
<node id="301037295" x="1127.019470107276" y="70.14651841018349" />
<node id="301037306" x="772.3802673737518" y="-862.1354589653201" />
<node id="301037313" x="1152.3200548833702" y="96.56502106273547" />
<node id="388048380" x="921.9682007385418" y="-516.3513549417257" />
<node id="388048381" x="1016.4478095982922" y="-543.8307921262458" />
<node id="388048386" x="1200.5733027979732" y="-587.1244845078327" />
<node id="560224224" x="-166.5657417239854" y="507.6344595984556" />
<node id="560224231" x="1139.7876225425862" y="64.68253038311377" />
<node id="564483317" x="-739.3319778974401" y="59.5065961163491" />
<node id="565507031" x="-737.6769115948118" y="832.9735681554303" />
<node id="565507035" x="-750.9246848267503" y="805.2156361918896" />
<node id="565507037" x="-577.002442682744" y="719.1050146794878" />
<node id="566993232" x="-1197.682114064577" y="-79.10706477006897" />
<node id="910664797" x="1154.2468080298277" y="131.30151387304068" />
<node id="910664831" x="1184.0073621053016" y="81.73677017074078" />
<node id="910664896" x="1172.7411235362524" y="50.74225845467299" />
<node id="910664903" x="772.9662142690504" y="177.020091063343" />
<node id="910664945" x="777.9005921615753" y="189.27256461884826" />
<node id="910664969" x="1069.2961640297435" y="91.66982569592074" />
<node id="910665134" x="1174.0630589891225" y="142.3752358504571" />
<node id="910665302" x="1125.869684768375" y="24.016190454829484" />
<node id="910665341" x="1014.5412598163821" y="142.41674605943263" />
<node id="910665361" x="1109.9679467583774" y="108.94688815670088" />
<node id="910665402" x="619.405939446995" y="226.27868762612343" />
<node id="1130872481" x="-1101.4235906805843" y="-255.6387830604799" />
<node id="1147571742" x="-881.4090598652838" y="-135.662410994526" />
<node id="1901092130" x="-692.3727821925422" y="-572.6422514533624" />
<node id="1901092237" x="-600.1321554954629" y="-322.1597568579018" />
<node id="2009503166" x="-1188.4434093779419" y="-84.34938511345536" />
<node id="2009503169" x="-1005.9158646314172" y="-60.710085625294596" />
<node id="2009503172" x="-1133.6897348471684" y="10.957908247131854" />
<node id="2009503212" x="-1004.5316012224648" y="308.87079920014367" />
<node id="2009503218" x="-966.9572981091915" y="435.6959542450495" />
<node id="2009503244" x="-884.1510840922128" y="615.3621402704157" />
<node id="2009503247" x="-894.8043126289267" y="622.5074953241274" />
<node id="2009503253" x="-781.5355922812596" y="778.9375392831862" />
<node id="2009503256" x="-767.6735910176067" y="781.5735672549345" />
<node id="2009503262" x="-720.7644867644412" y="784.7560932175256" />
<node id="2009503273" x="-758.6416434893617" y="810.7735417066142" />
<node id="2009503278" x="-782.2380740703084" y="827.7274201805703" />
<node id="2102480322" x="909.8172974523623" y="-512.0066001815721" />
<node id="2102480543" x="798.8124555605464" y="-387.3450935180299" />
<node id="2102480576" x="521.5018725313712" y="-275.09773467155173" />
<node id="2102480797" x="654.2108310919721" y="-178.79659038363025" />
<node id="2102480798" x="1045.199938454898" y="-137.38945454824716" />
<node id="2102480799" x="958.2305307083298" y="-131.15870366198942" />
<node id="2102480800" x="908.6285269125365" y="-111.03763499530032" />
<node id="2102480801" x="967.5346597073367" y="-106.83026010822505" />
<node id="2102480803" x="713.3688578751171" y="-30.770847368054092" />
<node id="2102480805" x="966.3033396038227" y="44.00245500262827" />
<node id="2102480808" x="759.9872539911885" y="94.16486758319661" />
<node id="2431985615" x="1101.5775785058504" y="-644.8522822731175" />
<node id="2431985617" x="1191.4896711010952" y="-657.5693241581321" />
<node id="2431985619" x="1041.690148959402" y="-631.4837031424977" />
<node id="2431985621" x="985.7787931003841" y="-613.9065677998587" />
<node id="2431985697" x="1077.3249789588153" y="783.4444725872017" />
<node id="2800360554" x="-106.507130443817" y="-873.479617450852" />
<node id="2800360555" x="-191.54660903848708" y="-836.417546773795" />
<node id="2800360557" x="-754.9930254055653" y="-739.1922181211412" />
<node id="2800360559" x="-347.65556321968324" y="-691.8373020072468" />
<node id="2800360560" x="-888.0828830233077" y="-690.0730687533505" />
<node id="2800360561" x="189.0675969189033" y="-630.6175175239332" />
<node id="2990766479" x="352.3452707704855" y="-692.0217830603942" />
<node id="3190842421" x="-1017.7761257803068" y="313.69642654107884" />
<node id="3190845391" x="-1018.9366030113306" y="309.6841988014057" />
<node id="3625450097" x="1025.7732225204818" y="487.194677464664" />
<node id="3625450098" x="1055.8875516122207" y="535.0320758959278" />
<node id="3625450108" x="973.1313255798304" y="587.7149720257148" />
<node id="3625450109" x="1135.6319740498438" y="249.8745702705346" />
<node id="3626021571" x="1179.0469951807754" y="702.2524006860331" />
<node id="3626021580" x="1139.4497040833812" y="774.7297671576962" />
<node id="3626021582" x="1139.6493541394593" y="646.6497000097297" />
<node id="3626021584" x="1106.359976585256" y="599.5630265651271" />
<node id="3626033093" x="1101.7909944863059" y="387.31454765610397" />
<node id="3626033094" x="1073.0636960931588" y="303.3823549877852" />
<node id="3626033095" x="1061.7366366238566" y="406.3019835865125" />
<node id="3626033096" x="1012.0026621056022" y="340.41014808323234" />
<node id="3626033097" x="1196.5975007070228" y="214.89662452833727" />
<node id="3626033116" x="932.997207939392" y="314.01503610471264" />
<node id="3626033117" x="656.7969185822876" y="375.01412283303216" />
<node id="3626033118" x="898.8896275220904" y="170.03943226160482" />
<node id="3626033119" x="914.438577468507" y="234.41636236663908" />
<node id="3626033120" x="1090.2696986002848" y="192.72138611320406" />
<node id="3626033121" x="1060.907795692794" y="125.71797093376517" />
<node id="3626033122" x="1126.8223996083252" y="258.34921508142725" />
<node id="3626040081" x="869.4331119086128" y="329.56720404792577" />
<node id="3626040084" x="640.8949527300429" y="310.6089758160524" />
<node id="3626040085" x="745.4106579645304" y="355.7626919709146" />
<node id="3626040087" x="727.300022791489" y="286.3722770451568" />
<node id="3626040088" x="727.9937795749865" y="289.11229671910405" />
<node id="3626040089" x="702.0126558106858" y="295.52072052750736" />
<node id="3626040092" x="633.7658957673702" y="282.4292786652222" />
<node id="3626040404" x="1149.4743862228934" y="725.6782709737308" />
<node id="3626040406" x="1063.4436936333077" y="716.8471918478608" />
<node id="3626040407" x="1012.8962954737945" y="724.1229974590242" />
<node id="3626040408" x="815.0987710747868" y="342.550613630563" />
<node id="3626040409" x="828.606946188258" y="400.78128029825166" />
<node id="3626040412" x="766.5026825056411" y="486.76057700579986" />
<node id="3626040416" x="870.8329492674675" y="394.1279585985467" />
<node id="3626040417" x="750.8117281130981" y="454.66539561608806" />
<node id="3626040418" x="877.6846473237965" y="425.65091829327866" />
<node id="3626040420" x="703.4763331416762" y="511.49202171480283" />
<node id="3626040421" x="733.4560551587492" y="499.46954096248373" />
<node id="3626040424" x="823.9891600564588" y="380.88482939405367" />
<node id="3626040436" x="989.6281172079034" y="611.5990513595752" />
<node id="3626040437" x="1047.1798783503473" y="660.5721747092903" />
<node id="3626040440" x="1002.6568298576167" y="667.0828396780416" />
<node id="3626040441" x="1033.9577774491627" y="620.9607977881096" />
<node id="3626040442" x="997.9581853379495" y="630.8209605081938" />
<node id="3626040443" x="1088.3900835373206" y="859.9901865604334" />
<node id="3626040449" x="996.152885092888" y="835.236002386082" />
<node id="3626040450" x="1082.5541575741954" y="820.1152799269184" />
<node id="3626040455" x="1181.4669856873807" y="866.7337035350502" />
<node id="3626040458" x="1059.6288887304254" y="938.9307594178244" />
<node id="3626040459" x="1160.9877544187475" y="895.5373540925793" />
<node id="3626040464" x="1088.4625637826975" y="930.6465495149605" />
<node id="3635907910" x="-853.8799236571649" y="113.3636674657464" />
<node id="3635907914" x="-554.0591876960825" y="47.327299918513745" />
<node id="3635907923" x="-885.2211628275691" y="32.4165022065863" />
<node id="3635907929" x="-820.386696434347" y="-114.34131954377517" />
<node id="3636480797" x="-1036.8408394925063" y="193.92648645862937" />
<node id="3636985377" x="-696.0806310280459" y="158.33190342923626" />
<node id="3636985378" x="-809.3317891046172" y="210.36066635278985" />
<node id="3636985385" x="-807.4946233440423" y="258.3985085939057" />
<node id="3735988694" x="1083.7675509704277" y="-74.78480312554166" />
<node id="3742620469" x="745.2943559375126" y="-923.7854395294562" />
<node id="4233113269" x="-606.4745562567841" y="739.9204413481057" />
<node id="4233113270" x="-604.7653354613576" y="742.2797542605549" />
<node id="4233113271" x="-617.9976014350541" y="748.0585695202462" />
<node id="4233113272" x="-616.1888162838295" y="750.8631547018886" />
<node id="4233113273" x="-640.5087547935545" y="763.9898362043314" />
<node id="4233113274" x="-639.0142101548845" y="766.3119726749137" />
<node id="4233113275" x="-655.8003798222635" y="774.8087762393989" />
<node id="4233113276" x="-653.6465773308882" y="778.0187553525902" />
<node id="4233113278" x="-659.8053389397683" y="801.7424844037741" />
<node id="4233113279" x="-555.4925057467772" y="810.1957021001726" />
<node id="4233113280" x="-685.3466285576578" y="816.3658421006985" />
<node id="4233113282" x="-571.0958875794895" y="820.9312454196624" />
<node id="4233113283" x="-531.0371801827569" y="824.5440020444803" />
<node id="4233113284" x="-620.1463789193658" y="827.8310472234152" />
<node id="4233113285" x="-707.2556017887546" y="833.1064181881957" />
<node id="4233113286" x="-635.9119888497517" y="838.3419840666465" />
<node id="4233113287" x="-517.8380197745282" y="847.4232805357315" />
<node id="4233113288" x="-731.9753863010556" y="848.8534811660647" />
<node id="4233126889" x="-658.8519967400935" y="853.6446139565669" />
<node id="4233126891" x="-682.7137124591973" y="869.5735077257268" />
<node id="4233126893" x="-794.6832258672221" y="873.0773046500981" />
<node id="4233126894" x="-769.8815887018573" y="876.477960281074" />
<node id="4233126895" x="-792.2919311254518" y="876.1474576289766" />
<node id="4233126896" x="-705.2875044676475" y="885.7365506896749" />
<node id="4233126897" x="-679.6521439895732" y="898.1769892536104" />
<node id="4233126898" x="-827.1303674777737" y="896.0452626259066" />
<node id="4233126899" x="-824.5925885739271" y="898.5970114995725" />
<node id="4233126903" x="-742.9766636292916" y="912.7329644691199" />
<node id="4233126904" x="-853.1016870934982" y="914.4194390922785" />
<node id="4233126905" x="-659.9711500992998" y="920.9746357407421" />
<node id="4233126906" x="-850.7128086669836" y="917.6225735140033" />
<node id="4233126909" x="-678.8306759487605" y="933.6798006002791" />
<node id="4233301010" x="-1153.186520681018" y="413.64000984141603" />
<node id="4233301012" x="-1061.1995484670624" y="408.8932557133958" />
<node id="4233301013" x="-974.1362978472607" y="451.49659594055265" />
<node id="4233301015" x="-1126.2308351958636" y="457.99904752196744" />
<node id="4233301018" x="-1165.1829225525726" y="483.3774252543226" />
<node id="4233301019" x="-1032.8190415491117" y="480.9280569944531" />
<node id="4233301024" x="-1088.2233270792058" y="518.5014192690141" />
<node id="4233301025" x="-1092.0118947696174" y="521.2041481980123" />
<node id="4233301026" x="-992.3926565947477" y="534.8894217275083" />
<node id="4233301027" x="-1209.9810879102442" y="530.4234546138905" />
<node id="4233301028" x="-1122.6772956640925" y="543.0745198321529" />
<node id="4233301033" x="-1149.4939160591457" y="562.1657058452256" />
<node id="4233301037" x="-1086.4670742165763" y="572.6574018108658" />
<node id="4233301039" x="-1164.9057146158302" y="573.1494011692703" />
<node id="4233301044" x="-1063.506545841461" y="593.3631145604886" />
<node id="4233301045" x="-927.813873788109" y="593.51435956778" />
<node id="4233301047" x="-1038.1589543221053" y="593.6910427552648" />
<node id="4233301054" x="-1139.3697809084551" y="612.6600343780592" />
<node id="4233301058" x="-1039.454023856204" y="619.6873989105225" />
<node id="4233301064" x="-1122.5590502725681" y="636.7238977407105" />
<node id="4233301068" x="-1004.7514092724305" y="645.4848433556035" />
<node id="4233301071" x="-1049.8871737360023" y="655.1073484062217" />
<node id="4233301076" x="-961.0901834050892" y="670.1039307303727" />
<node id="4233301081" x="-1090.8359889915446" y="682.1121025602333" />
<node id="4233301083" x="-942.5348326367093" y="702.093393354211" />
<node id="4233301087" x="-1016.9097465726081" y="706.8600470940582" />
<node id="4233301194" x="-995.4781553210923" y="737.8706977074035" />
<node id="4233301198" x="-896.4871735007036" y="758.5410765646957" />
<node id="4233301199" x="-1084.692006755853" y="755.5163618973456" />
<node id="4233301210" x="-868.5910046705976" y="795.7672115634196" />
<node id="4233301211" x="-916.6991041419096" y="799.3040274190716" />
<node id="4233301215" x="-935.5364050751086" y="812.4091128143482" />
<node id="4233301220" x="-849.3194597768597" y="824.9539359873161" />
<node id="4233301226" x="-835.2109597070375" y="846.3083428237587" />
<node id="4233301230" x="-826.4756833267165" y="859.5494197006337" />
<node id="4233301234" x="-963.1609625578858" y="831.2634247271344" />
<node id="4233301239" x="-886.5707994889235" y="882.2248319722712" />
<node id="4233301251" x="-915.4730521376478" y="902.441579060629" />
<node id="4233524596" x="864.3173972336808" y="-480.22450016858056" />
<node id="4233524597" x="774.934005894349" y="-445.5107191368006" />
<node id="4233524600" x="871.3339995957213" y="-384.52946134796366" />
<node id="4233524604" x="885.3071343047777" y="-326.5120387049392" />
<node id="4233524606" x="906.793995203916" y="-304.521182061173" />
<node id="4233524607" x="835.272652650252" y="-291.9194675707258" />
<node id="4233524608" x="908.2267709912267" y="-250.28148150769994" />
<node id="4233524610" x="860.4943491315935" y="-231.76669261371717" />
<node id="4233524611" x="613.8083301479928" y="-200.1690300856717" />
<node id="4233524615" x="666.7364087001188" y="-151.2608173964545" />
<node id="4233524616" x="628.8115591784008" y="-140.0820921738632" />
<node id="4233524617" x="598.6913637366379" y="-133.29466617759317" />
<node id="4233524618" x="921.1482824746054" y="-84.82094563404098" />
<node id="4233524619" x="685.9899836396798" y="-101.42856332613155" />
<node id="4233524620" x="670.8306363180745" y="-94.75512889306992" />
<node id="4233524625" x="700.4018636289984" y="-25.132664125412703" />
<node id="4233524626" x="-647.9936086195521" y="-45.95850035827607" />
<node id="4233524630" x="-776.2268085213145" y="-16.408991165459156" />
<node id="4233524633" x="-651.75160148344" y="-7.8673117202706635" />
<node id="4233524636" x="-830.9848582670093" y="7.538801615592092" />
<node id="4233524637" x="-713.0077888703672" y="12.724332241807133" />
<node id="4233524638" x="-640.2977120373398" y="14.159517384134233" />
<node id="4233524639" x="-841.2475080009317" y="12.019420241937041" />
<node id="4233524641" x="-817.4447831906145" y="28.45041101332754" />
<node id="4233524644" x="-672.8353116099024" y="29.054633827880025" />
<node id="4233524646" x="834.5574118011864" y="76.92918063700199" />
<node id="4233524647" x="-703.8428340109531" y="43.2570785433054" />
<node id="4233524648" x="-810.1802509324625" y="53.15024276776239" />
<node id="4233524652" x="-615.7914049135288" y="75.78115347353742" />
<node id="4233524653" x="748.1059049403993" y="97.72753323055804" />
<node id="4233524655" x="-788.1580178830773" y="82.95243066689" />
<node id="4233524656" x="-647.2433926841477" y="88.58953807223588" />
<node id="4233524659" x="842.659163031145" y="118.24229760700837" />
<node id="4233524660" x="-678.9428929263959" y="102.09194123791531" />
<node id="4233524667" x="740.0193799186964" y="158.07873916625977" />
<node id="4233524678" x="6.211392962606624" y="197.56302135344595" />
<node id="4233524679" x="-23.539706990821287" y="202.4407229530625" />
<node id="4233524680" x="-101.085909200483" y="214.46102006407455" />
<node id="4233526997" x="-1162.4318619803526" y="238.82726676156744" />
<node id="4233527007" x="-768.9645212213509" y="315.9624874847941" />
<node id="4233527029" x="-849.129606516799" y="383.77135612862185" />
<node id="4233527031" x="-1204.574452804285" y="379.95676370710135" />
<node id="4233527032" x="-763.5249232812785" y="398.93290713243186" />
<node id="4233527034" x="-728.2482860896271" y="404.5087917111814" />
<node id="4233527036" x="54.45501968730241" y="413.8670966178179" />
<node id="4233527037" x="-978.4144461181713" y="398.23703995347023" />
<node id="4233527040" x="-925.1745500934776" y="417.79762127483264" />
<node id="4233527041" x="-809.3562769971322" y="421.4243870587088" />
<node id="4233527050" x="-779.5102941276273" y="431.16954803979024" />
<node id="4233527054" x="-856.0730235003866" y="421.0396246961318" />
<node id="4233527057" x="-792.9230756810866" y="435.55948320403695" />
<node id="4233527058" x="-816.8332066941075" y="446.5875922208652" />
<node id="4233527060" x="-878.7874787433539" y="453.5086689405143" />
<node id="4233527061" x="-865.9203016411047" y="477.47897478425875" />
<node id="4233527062" x="-910.9792582077207" y="466.16007500654086" />
<node id="4233527065" x="-900.234695620602" y="498.6504643354565" />
<node id="4233527066" x="-848.6251267426414" y="501.2638238114305" />
<node id="4233527067" x="-775.7501121204114" y="521.4264672338031" />
<node id="4233527068" x="-942.4970283447765" y="516.018901349511" />
<node id="4233527071" x="-834.4575571597088" y="527.4640527032316" />
<node id="4233527072" x="-772.3327056242852" y="543.9498900631443" />
<node id="4233527076" x="-821.4757576384582" y="548.3544713258743" />
<node id="4233527077" x="-927.1104144306155" y="550.0127939879894" />
<node id="4233527079" x="-889.7706445711665" y="564.8386185737327" />
<node id="4233527080" x="-813.3203283048933" y="561.1969531532377" />
<node id="4233527083" x="-786.9693327107234" y="601.0447907163762" />
<node id="4233527084" x="-897.063664982561" y="599.2734910398722" />
<node id="4233527088" x="-858.1466416108888" y="653.8176957936957" />
<node id="4233648176" x="1141.8855645628646" y="-844.868245198857" />
<node id="4233648177" x="779.2160553489812" y="-847.8304275907576" />
<node id="4233648180" x="1051.1353812630987" y="-831.3678650930524" />
<node id="4233648181" x="971.0122258228948" y="-820.7649735598825" />
<node id="4233648184" x="1146.8828841208015" y="-809.376975174062" />
<node id="4233648185" x="282.8434228557162" y="-818.8149444656447" />
<node id="4233654289" x="1055.791950332583" y="-793.2997336979024" />
<node id="4233654293" x="1152.335419411771" y="-775.2188175087795" />
<node id="4233654295" x="1135.636624011211" y="-771.678415636532" />
<node id="4233654296" x="1110.681938675698" y="-766.393769458402" />
<node id="4233654299" x="1076.0263904860476" y="-759.047670328524" />
<node id="4233654300" x="-440.06573194579687" y="-777.7129316939972" />
<node id="4233654301" x="1060.3891228755238" y="-755.7315828530118" />
<node id="4233654303" x="176.0793343540281" y="-770.5673692044802" />
<node id="4233654304" x="1018.3231236872962" y="-746.8250980945304" />
<node id="4233654309" x="988.6310941269621" y="-740.5295724160969" />
<node id="4233654311" x="-678.0746491707396" y="-770.2198007348925" />
<node id="4233654314" x="-77.78541266010143" y="-741.9460080876015" />
<node id="4233654315" x="-590.3620643583126" y="-782.1700423522852" />
<node id="4233654319" x="1082.4413685709005" y="-727.7100567286834" />
<node id="4233654320" x="1053.2296930347802" y="-721.982379312627" />
<node id="4233654321" x="1024.415836596978" y="-716.591014394071" />
<node id="4233654326" x="-743.9557406436652" y="-744.7784430240281" />
<node id="4233654335" x="-662.5612520794384" y="-715.159112864174" />
<node id="4233654341" x="-836.2757093923865" y="-708.2546598729677" />
<node id="4233654344" x="780.051729999599" y="-673.3900986518711" />
<node id="4233654345" x="766.28012745257" y="-673.0328058074228" />
<node id="4233654350" x="1154.7647271205205" y="-653.7426815093495" />
<node id="4233654354" x="-652.0659701165278" y="-683.992412337102" />
<node id="4233654355" x="-498.2512812538771" y="-680.3477043700404" />
<node id="4233654356" x="1129.4719700365094" y="-649.761434589047" />
<node id="4233654357" x="975.4033347673248" y="-651.3700698730536" />
<node id="4233654363" x="1075.8960974727524" y="-639.4257163717411" />
<node id="4233654365" x="1067.8238030234352" y="-637.5450626849197" />
<node id="4233654366" x="1194.3776411416475" y="-628.7798002017662" />
<node id="4233654367" x="1057.450997242122" y="-635.141218171455" />
<node id="4233654368" x="-435.967765309033" y="-663.0927316360176" />
<node id="4233654370" x="-644.1479724155506" y="-663.9812712911516" />
<node id="4233654371" x="1032.6899865607265" y="-628.6555243744515" />
<node id="4233654372" x="-723.0819248140324" y="-655.573764576111" />
<node id="4233654373" x="1196.5084813695867" y="-616.3347491840832" />
<node id="4233654375" x="1008.7224034909159" y="-621.1241659787484" />
<node id="4233654376" x="-485.6678446615115" y="-648.2891021729447" />
<node id="4233654377" x="875.4290848905221" y="-613.126178835053" />
<node id="4233654379" x="1198.7524132679682" y="-598.8543012905866" />
<node id="4233654381" x="1083.955400693696" y="-607.5368333300576" />
<node id="4233654382" x="-716.34905204596" y="-637.6795957656577" />
<node id="4233654385" x="865.9871301453095" y="-607.0243524704129" />
<node id="4233654386" x="1065.1883953528013" y="-603.3136938521639" />
<node id="4233654387" x="1038.4784085791325" y="-597.3183463416062" />
<node id="4233654388" x="-541.0422129292274" y="-627.2472017938271" />
<node id="4233654389" x="1018.2564740714151" y="-592.7670697425492" />
<node id="4233654391" x="-564.060333074769" y="-618.0213603335433" />
<node id="4233654392" x="997.1105238462333" y="-588.0109855644405" />
<node id="4233654394" x="1091.0415843089577" y="-578.1048578680493" />
<node id="4233654396" x="1072.3141963181552" y="-573.3710223892704" />
<node id="4233654398" x="-642.4523723251186" y="-589.9038927229121" />
<node id="4233654399" x="1010.3685645995429" y="-557.7230027508922" />
<node id="4233654400" x="-0.7984671576414257" y="-557.9340523881838" />
<node id="4233654402" x="-741.6684908682946" y="-554.1938726217486" />
<node id="4233654403" x="-757.3424207591452" y="-528.3705875803716" />
<node id="4233654404" x="-778.4636734155938" y="-540.5066850553267" />
<node id="4233654405" x="-622.115433346713" y="-530.4093576879241" />
<node id="4233654406" x="-673.7703815231798" y="-522.1816147398204" />
<node id="4233654407" x="-745.11929812585" y="-495.85322717763484" />
<node id="4233654408" x="-194.32818807056174" y="-487.13275443343446" />
<node id="4233654409" x="-660.112295875093" y="-485.1479965238832" />
<node id="4233654410" x="-732.4057030964177" y="-461.24266313388944" />
<node id="4233654411" x="-310.37118708575144" y="-457.48732568556443" />
<node id="4233654417" x="-665.206903108512" y="-420.42929737456143" />
<node id="4233654418" x="-170.286656643264" y="-421.01749327545986" />
<node id="4233654420" x="-195.8588553275913" y="-411.850087411236" />
<node id="4233654421" x="-434.3379020439461" y="-423.3067633630708" />
<node id="4233654422" x="-783.8788302149624" y="-417.80056754965335" />
<node id="4233654425" x="-120.98081026156433" y="-387.97757994849235" />
<node id="4233654426" x="-296.50307777523994" y="-388.5645944951102" />
<node id="4233654427" x="-484.2366743996972" y="-398.08554668026045" />
<node id="4233654432" x="-187.50163812120445" y="-371.9746104106307" />
<node id="4233654434" x="-653.8425248955609" y="-377.87202063575387" />
<node id="4233654438" x="-183.10853447695263" y="-352.52630130108446" />
<node id="4233654441" x="498.5849400043953" y="-335.5732843251899" />
<node id="4233654442" x="-539.3018972318387" y="-363.3241342799738" />
<node id="4233654444" x="-35.586097832070664" y="-342.2716027116403" />
<node id="4233654445" x="-288.30189144669566" y="-347.0956049761735" />
<node id="4233654448" x="-235.10098707373254" y="-341.3465871415101" />
<node id="4233654450" x="-178.54649797687307" y="-336.43411603942513" />
<node id="4233654452" x="-25.16581724479329" y="-331.22756294021383" />
<node id="4233654453" x="-705.0933613859816" y="-338.57255998346955" />
<node id="4233654454" x="-471.53284731903113" y="-335.0601499401964" />
<node id="4233654455" x="-208.6066192757571" y="-329.7100424715318" />
<node id="4233654461" x="-76.63233679474797" y="-319.90589962666854" />
<node id="4233654463" x="424.2782365982421" y="-303.95122651942074" />
<node id="4233654469" x="-336.41935026692227" y="-310.0464861225337" />
<node id="4233654470" x="-400.08752782677766" y="-304.94378645252436" />
<node id="4233654471" x="578.3158201001352" y="-298.25908155273646" />
<node id="4233654473" x="-489.03821082098875" y="-316.1996263335459" />
<node id="4233654475" x="-67.40718960133381" y="-303.9945722850971" />
<node id="4233654476" x="-707.3075963456649" y="-311.59516387199983" />
<node id="4233654477" x="-132.9294803198427" y="-298.6943588592112" />
<node id="4233654478" x="384.3092192884069" y="-286.4676075670868" />
<node id="4233654479" x="-661.9887989872368" y="-307.93173569766805" />
<node id="4233654481" x="-59.04201976431068" y="-290.8483977741562" />
<node id="4233654484" x="-630.2036255404819" y="-302.430403504055" />
<node id="4233654485" x="484.4296267324826" y="-276.27550617977977" />
<node id="4233654488" x="746.0843754578382" y="-261.3594671259634" />
<node id="4233654489" x="-762.6438245042227" y="-286.0838292972185" />
<node id="4233654490" x="-118.97756762092467" y="-269.2820968790911" />
<node id="4233654491" x="-49.246125370729715" y="-274.02861968195066" />
<node id="4233654495" x="-650.8523253557505" y="-289.95729386014864" />
<node id="4233654497" x="-210.20005130046047" y="-269.7611449537799" />
<node id="4233654500" x="703.0122762196697" y="-245.51917296089232" />
<node id="4233654501" x="940.9192778778961" y="-240.901047823485" />
<node id="4233654503" x="-110.87172018457204" y="-253.19168440112844" />
<node id="4233654504" x="471.2214616028359" y="-243.03595336480066" />
<node id="4233654505" x="-495.7930075357435" y="-258.7395630902611" />
<node id="4233654506" x="545.526256986428" y="-242.49561921786517" />
<node id="4233654507" x="918.5581470375182" y="-229.10501433489844" />
<node id="4233654508" x="-590.6341505928431" y="-237.3636605697684" />
<node id="4233654513" x="-527.2578415177995" y="-238.8363109785132" />
<node id="4233654514" x="831.7444755038014" y="-221.2517805029638" />
<node id="4233654517" x="658.78042011871" y="-223.54693735390902" />
<node id="4233654524" x="-1114.457135604811" y="-248.4477577060461" />
<node id="4233654532" x="-583.7857751783449" y="-225.29875153722242" />
<node id="4233654533" x="784.0074354071403" y="-202.47070616064593" />
<node id="4233654536" x="901.3402311826358" y="-186.0169224254787" />
<node id="4233654537" x="-216.08842985751107" y="-210.500390724279" />
<node id="4233654541" x="-927.0726351427147" y="-216.12715678708628" />
<node id="4233654546" x="731.0969118671492" y="-181.30089982179925" />
<node id="4233654553" x="-565.0754318281543" y="-196.94230598863214" />
<node id="4233654554" x="-196.26400848827325" y="-188.51986446511" />
<node id="4233654555" x="-1190.8090628416976" y="-206.30985215306282" />
<node id="4233654563" x="690.4472744433442" y="-162.47823122423142" />
<node id="4233654565" x="894.2894557795953" y="-153.35215103300288" />
<node id="4233654566" x="-514.3336574353743" y="-183.068580057472" />
<node id="4233654573" x="-1132.5018189512193" y="-171.2926075141877" />
<node id="4233654581" x="-1045.8052940738853" y="-151.33537757257" />
<node id="4233654585" x="-887.1638875356875" y="-145.9666579430923" />
<node id="4233654596" x="-1167.574620928499" y="-84.74624289665371" />
<node id="4233654604" x="-991.3935656661633" y="-85.71200019633397" />
<node id="4233654605" x="-489.61817071726546" y="-69.55811668280512" />
<node id="4233709053" x="1191.0648523762356" y="-852.446322567761" />
<node id="4233709068" x="1203.3459403926972" y="-786.0337398136035" />
<node id="4233713905" x="1019.0236448291689" y="-231.87326816562563" />
<node id="4233713931" x="1150.6103134646546" y="-143.97930985875428" />
<node id="4233713948" x="1166.8604214459192" y="-112.48309095436707" />
<node id="4233713967" x="1154.6653157826513" y="-11.918737126979977" />
<node id="4233713969" x="1117.0080065197544" y="6.003988450393081" />
<node id="4233845024" x="1081.1097023442853" y="170.16929945535958" />
<node id="4233845025" x="909.4865891500376" y="212.46272319182754" />
<node id="4233845026" x="972.6455898274435" y="220.61752198683098" />
<node id="4233845027" x="1107.9443236087682" y="224.4543714649044" />
<node id="4233845029" x="949.8250357606448" y="226.0191216422245" />
<node id="4233845030" x="871.1243048862088" y="237.3910314901732" />
<node id="4233845031" x="1120.652937249979" y="247.27122959587723" />
<node id="4233845033" x="719.3735933946446" y="258.4439716124907" />
<node id="4233845038" x="733.9812420780072" y="312.8032440780662" />
<node id="4233845039" x="897.3699023136869" y="323.81588450586423" />
<node id="4233845040" x="698.1209735585144" y="323.57603108370677" />