<edges>
<edge from="268789836" to="268789959" id="268789836to268789959" numLanes="1" shape="1046.6950861508958,1175.9418413317762 980.2436415405245,1115.9533043871634" />
<edge from="268789836" to="268790945" id="268789836to268790945" numLanes="1" shape="1046.6950861508958,1175.9418413317762 1046.6950861508958,1175.9418413317762 1037.4711164569017,1177.6171710283961 1004.5856268891948,1183.5766474597622 980.8482320323237,1187.872097331332" />
<edge from="268789860" to="268789861" id="268789860to268789861" numLanes="1" shape="940.8960166563629,791.1283519731369 920.7529517119983,717.0116181403864" />
<edge from="268789860" to="3248845375" id="268789860to3248845375" numLanes="1" shape="940.8960166563629,791.1283519731369 945.4244095509639,804.0767152642366 954.3119730622275,849.6268576639704 953.9488504681503,880.6390594006516 951.023561386799,903.4416097807698 956.8920295393327,940.3079002259765 965.5677782346029,976.6570895204786 965.5677782346029,976.6570895204786" />
<edge from="268789860" to="330576733" id="268789860to330576733" numLanes="1" shape="940.8960166563629,791.1283519731369 1005.5568966298597,766.6489442002494 1017.9564236499718,749.6687377302442 1016.3520878981217,731.6906052804552 975.2937037062948,710.1138852229342 975.2937037062948,710.1138852229342" />
<edge from="268789861" to="268789860" id="268789861to268789860" numLanes="1" shape="920.7529517119983,717.0116181403864 940.8960166563629,791.1283519731369" />
<edge from="268789861" to="330576770" id="268789861to330576770" numLanes="1" shape="920.7529517119983,717.0116181403864 904.912129216129,652.7582997577265" />
<edge from="268789861" to="330576733" id="268789861to330576733" numLanes="1" shape="920.7529517119983,717.0116181403864 975.2937037062948,710.1138852229342" />
<edge from="268789861" to="330576757" id="268789861to330576757" numLanes="1" shape="920.7529517119983,717.0116181403864 851.7680118302815,702.541136601707" />
<edge from="268789868" to="268789869" id="268789868to268789869" numLanes="1" shape="674.1729680362041,184.49747427436523 587.4252880279673,113.07943717157468" />
<edge from="268789868" to="330593466" id="268789868to330593466" numLanes="1" shape="674.1729680362041,184.49747427436523 683.4721921972814,295.05466127139516" />
<edge from="268789868" to="268789954" id="268789868to268789954" numLanes="1" shape="674.1729680362041,184.49747427436523 775.5081972055486,238.14369550044648 787.6833853049902,244.07955751218833 787.6833853049902,244.07955751218833" />
<edge from="268789869" to="268789868" id="268789869to268789868" numLanes="1" shape="587.4252880279673,113.07943717157468 674.1729680362041,184.49747427436523" />
<edge from="268789869" to="330593480" id="268789869to330593480" numLanes="1" shape="587.4252880279673,113.07943717157468 575.4754926062305,102.76338084693998" />
<edge from="268789869" to="330593514" id="268789869to330593514" numLanes="1" shape="587.4252880279673,113.07943717157468 503.51763903402025,131.92164776357822" />
<edge from="268789870" to="330593480" id="268789870to330593480" numLanes="1" shape="526.8289570680936,68.30339484615251 575.4754926062305,102.76338084693998" />
<edge from="268789870" to="330593523" id="268789870to330593523" numLanes="1" shape="526.8289570680936,68.30339484615251 474.2361547765904,85.07233720296063" />
<edge from="268789870" to="330593697" id="268789870to330593697" numLanes="1" shape="526.8289570680936,68.30339484615251 493.3841852755286,21.89784599165432 469.76241022796603,-21.805356754688546 469.76241022796603,-21.805356754688546" />
<edge from="268789874" to="330593716" id="268789874to330593716" numLanes="1" shape="358.3042402843712,-148.69009113544598 391.3909873777302,-120.56514207506552" />
<edge from="268789874" to="330779489" id="268789874to330779489" numLanes="1" shape="358.3042402843712,-148.69009113544598 317.3053613252123,-225.75215778243728" />
<edge from="268789874" to="268789985" id="268789874to268789985" numLanes="1" shape="358.3042402843712,-148.69009113544598 340.2813787726336,-140.7394974527415 251.5554597985465,-119.03979360009544 251.5554597985465,-119.03979360009544" />
<edge from="268789875" to="330779489" id="268789875to330779489" numLanes="1" shape="307.47409878473263,-241.99135400704108 317.3053613252123,-225.75215778243728" />
<edge from="268789875" to="330612027" id="268789875to330612027" numLanes="1" shape="307.47409878473263,-241.99135400704108 227.13492299168138,-215.49475565948524" />
<edge from="268789875" to="330653324" id="268789875to330653324" numLanes="1" shape="307.47409878473263,-241.99135400704108 291.22872128727613,-266.94839604757726 221.55875509011094,-324.4041051797103 181.2754541109898,-358.00388227566145 181.2754541109898,-358.00388227566145" />
<edge from="268789877" to="268789942" id="268789877to268789942" numLanes="1" shape="835.7065894944244,924.3672521079425 880.8190049384139,941.7069010224659" />
<edge from="268789877" to="330576694" id="268789877to330576694" numLanes="1" shape="835.7065894944244,924.3672521079425 836.802101534442,902.6097437685821 869.463259176875,894.0517485344317 869.463259176875,894.0517485344317" />
<edge from="268789877" to="268789879" id="268789877to268789879" numLanes="1" shape="835.7065894944244,924.3672521079425 739.8571414242033,905.5865556334611 719.8719990011887,891.7664366548415 719.8719990011887,891.7664366548415" />
<edge from="268789877" to="3371735058" id="268789877to3371735058" numLanes="1" shape="835.7065894944244,924.3672521079425 821.7505125235766,906.647159272572 803.9654058665037,863.2359772769269 803.9654058665037,863.2359772769269" />
<edge from="268789879" to="268789877" id="268789879to268789877" numLanes="1" shape="719.8719990011887,891.7664366548415 719.8719990011887,891.7664366548415 739.8571414242033,905.5865556334611 835.7065894944244,924.3672521079425" />
<edge from="268789879" to="330576671" id="268789879to330576671" numLanes="1" shape="719.8719990011887,891.7664366548415 704.8496775360545,851.1451375156175" />
<edge from="268789879" to="3371735058" id="268789879to3371735058" numLanes="1" shape="719.8719990011887,891.7664366548415 789.2515409026528,867.7922031055205 803.9654058665037,863.2359772769269 803.9654058665037,863.2359772769269" />
<edge from="268789880" to="330576059" id="268789880to330576059" numLanes="1" shape="590.2860742865014,569.246420066338 624.5702223731205,548.4292584746145" />
<edge from="268789880" to="268789881" id="268789880to268789881" numLanes="1" shape="590.2860742865014,569.246420066338 553.8550089900964,474.19854314439" />
<edge from="268789880" to="330576678" id="268789880to330576678" numLanes="1" shape="590.2860742865014,569.246420066338 685.4947959674755,801.4679129540455" />
<edge from="268789881" to="268789880" id="268789881to268789880" numLanes="1" shape="553.8550089900964,474.19854314439 590.2860742865014,569.246420066338" />
<edge from="268789881" to="330576253" id="268789881to330576253" numLanes="1" shape="553.8550089900964,474.19854314439 517.8989143678336,418.3445326415822 432.04636255744845,323.4447623118758 432.04636255744845,323.4447623118758" />
<edge from="268789881" to="6773818264" id="268789881to6773818264" numLanes="1" shape="553.8550089900964,474.19854314439 554.5766453808174,465.28234070632607 573.2039929270395,434.7463389984332 573.2039929270395,434.7463389984332" />
<edge from="268789882" to="268789963" id="268789882to268789963" numLanes="1" shape="606.9358576597297,381.5040559945628 641.9139802340651,425.88122630282305" />
<edge from="268789882" to="330576404" id="268789882to330576404" numLanes="1" shape="606.9358576597297,381.5040559945628 576.1653307497036,347.9306340266485" />
<edge from="268789882" to="6773818264" id="268789882to6773818264" numLanes="1" shape="606.9358576597297,381.5040559945628 573.2039929270395,434.7463389984332" />
<edge from="268789920" to="330593466" id="268789920to330593466" numLanes="1" shape="663.6860783873126,311.7031731191091 683.4721921972814,295.05466127139516" />
<edge from="268789920" to="330576496" id="268789920to330576496" numLanes="1" shape="663.6860783873126,311.7031731191091 648.8932120208628,289.9157163070049 625.5604646029533,266.5612076346297 596.878224807675,242.28264461713843 572.2213119173539,233.11054923338816 572.2213119173539,233.11054923338816" />
<edge from="268789920" to="268789961" id="268789920to268789961" numLanes="1" shape="663.6860783873126,311.7031731191091 672.2632873659022,325.77854232117534 681.7806028109044,353.2332253344357 696.7092011604691,398.6989019091707 696.7092011604691,398.6989019091707" />
<edge from="268789926" to="268789939" id="268789926to268789939" numLanes="1" shape="328.0721135935164,84.33802967192605 311.6267945417203,108.35353464982472" />
<edge from="268789926" to="330593548" id="268789926to330593548" numLanes="1" shape="328.0721135935164,84.33802967192605 340.79175658983877,54.781785340746865 341.73320166324265,25.150270133279264 341.73320166324265,25.150270133279264" />
<edge from="268789926" to="330593595" id="268789926to330593595" numLanes="1" shape="328.0721135935164,84.33802967192605 303.3288037433522,57.29409101232886 273.34207376191625,17.713250558823347 237.80170858470956,-40.17666276078671 237.80170858470956,-40.17666276078671" />
<edge from="268789926" to="330593476" id="268789926to330593476" numLanes="1" shape="328.0721135935164,84.33802967192605 369.52761811809614,114.89307541074231 429.2763159616152,148.18039044528268 429.2763159616152,148.18039044528268" />
<edge from="268789939" to="268789926" id="268789939to268789926" numLanes="1" shape="311.6267945417203,108.35353464982472 328.0721135935164,84.33802967192605" />
<edge from="268789939" to="330593624" id="268789939to330593624" numLanes="1" shape="311.6267945417203,108.35353464982472 288.4833197259577,90.39580956101418" />
<edge from="268789939" to="330593646" id="268789939to330593646" numLanes="1" shape="311.6267945417203,108.35353464982472 326.45759645826183,120.97229940793477" />
<edge from="268789940" to="330576280" id="268789940to330576280" numLanes="1" shape="484.80966302845627,240.62722358992323 477.67638930439716,248.8326909414027" />
<edge from="268789940" to="330576289" id="268789940to330576289" numLanes="1" shape="484.80966302845627,240.62722358992323 392.2046088317875,172.63367412076332" />
<edge from="268789940" to="330576488" id="268789940to330576488" numLanes="1" shape="484.80966302845627,240.62722358992323 512.8702550551388,270.95714158238843" />
<edge from="268789942" to="268789877" id="268789942to268789877" numLanes="1" shape="880.8190049384139,941.7069010224659 835.7065894944244,924.3672521079425" />
<edge from="268789942" to="330576694" id="268789942to330576694" numLanes="1" shape="880.8190049384139,941.7069010224659 869.463259176875,894.0517485344317" />
<edge from="268789942" to="3248845375" id="268789942to3248845375" numLanes="1" shape="880.8190049384139,941.7069010224659 946.3974813903915,966.9153819361236 965.5677782346029,976.6570895204786 965.5677782346029,976.6570895204786" />
<edge from="268789944" to="330576765" id="268789944to330576765" numLanes="1" shape="821.978572234977,674.0740831701551 814.3983310988988,637.8654368540738" />
<edge from="268789944" to="330576568" id="268789944to330576568" numLanes="1" shape="821.978572234977,674.0740831701551 833.1672230922268,727.4696510003414" />
<edge from="268789944" to="3371735062" id="268789944to3371735062" numLanes="1" shape="821.978572234977,674.0740831701551 768.7121696650283,690.0924861221574 754.1602621173952,694.4381090947427 754.1602621173952,694.4381090947427" />
<edge from="268789950" to="268789961" id="268789950to268789961" numLanes="1" shape="735.7546529620886,334.28178719291463 696.7092011604691,398.6989019091707" />
<edge from="268789950" to="330593456" id="268789950to330593456" numLanes="1" shape="735.7546529620886,334.28178719291463 750.9570911796181,304.3754867219832" />
<edge from="268789950" to="330576503" id="268789950to330576503" numLanes="1" shape="735.7546529620886,334.28178719291463 781.4426317439647,456.95125085650943 795.2396755417576,537.6120000632945 795.2396755417576,537.6120000632945" />
<edge from="268789954" to="268789868" id="268789954to268789868" numLanes="1" shape="787.6833853049902,244.07955751218833 787.6833853049902,244.07955751218833 775.5081972055486,238.14369550044648 674.1729680362041,184.49747427436523" />
<edge from="268789954" to="330593447" id="268789954to330593447" numLanes="1" shape="787.6833853049902,244.07955751218833 774.188171712216,264.6243165875785" />
<edge from="268789954" to="2164208484" id="268789954to2164208484" numLanes="1" shape="787.6833853049902,244.07955751218833 798.236876674986,233.54145830543712" />
<edge from="268789954" to="3248842476" id="268789954to3248842476" numLanes="1" shape="787.6833853049902,244.07955751218833 798.1495676243794,255.17429540562443 806.207700034196,266.1324438126758 822.1092831894057,310.6220293107908 822.1092831894057,310.6220293107908" />
<edge from="268789959" to="268789836" id="268789959to268789836" numLanes="1" shape="980.2436415405245,1115.9533043871634 1046.6950861508958,1175.9418413317762" />
<edge from="268789959" to="268790945" id="268789959to268790945" numLanes="1" shape="980.2436415405245,1115.9533043871634 980.8482320323237,1187.872097331332" />
<edge from="268789959" to="3263038277" id="268789959to3263038277" numLanes="1" shape="980.2436415405245,1115.9533043871634 968.9854676312534,1126.4713360341266 953.4971770167467,1144.0580005228985 931.1996851013973,1169.3735081858467 924.5352966202772,1203.866153055802 925.1241971408017,1241.3564559766091 925.1241971408017,1241.3564559766091" />
<edge from="268789959" to="3248845375" id="268789959to3248845375" numLanes="1" shape="980.2436415405245,1115.9533043871634 981.3525619233842,1011.2598138591275 974.7658597264672,991.759231681237 965.5677782346029,976.6570895204786 965.5677782346029,976.6570895204786" />
<edge from="268789961" to="268789920" id="268789961to268789920" numLanes="1" shape="696.7092011604691,398.6989019091707 696.7092011604691,398.6989019091707 681.7806028109044,353.2332253344357 672.2632873659022,325.77854232117534 663.6860783873126,311.7031731191091" />
<edge from="268789961" to="268789950" id="268789961to268789950" numLanes="1" shape="696.7092011604691,398.6989019091707 735.7546529620886,334.28178719291463" />
<edge from="268789961" to="268789963" id="268789961to268789963" numLanes="1" shape="696.7092011604691,398.6989019091707 641.9139802340651,425.88122630282305" />
<edge from="268789961" to="330576035" id="268789961to330576035" numLanes="1" shape="696.7092011604691,398.6989019091707 668.5060845484259,465.7490528044291" />
<edge from="268789961" to="330576156" id="268789961to330576156" numLanes="1" shape="696.7092011604691,398.6989019091707 700.1940186590655,414.40419010049663 712.2721126184333,456.84805571311153 724.0919915759587,521.7879298974294 728.7570791476173,569.5736069288105 728.7570791476173,569.5736069288105" />
<edge from="268789963" to="268789882" id="268789963to268789882" numLanes="1" shape="641.9139802340651,425.88122630282305 606.9358576597297,381.5040559945628" />
<edge from="268789963" to="268789961" id="268789963to268789961" numLanes="1" shape="641.9139802340651,425.88122630282305 696.7092011604691,398.6989019091707" />
<edge from="268789963" to="330576035" id="268789963to330576035" numLanes="1" shape="641.9139802340651,425.88122630282305 668.5060845484259,465.7490528044291" />
<edge from="268789969" to="268789971" id="268789969to268789971" numLanes="1" shape="93.58897747186711,-390.77541825943626 109.330538788985,-389.18592321127653 116.20213354972657,-397.87731493241154 116.20213354972657,-397.87731493241154" />
<edge from="268789969" to="3371735080" id="268789969to3371735080" numLanes="1" shape="93.58897747186711,-390.77541825943626 91.70918507239548,-377.52035145205446 94.31360114843119,-348.1649137788918 102.66985954833217,-285.0949536897242 111.312046016159,-235.13149071112275 132.50988292496186,-193.47835814510472 132.50988292496186,-193.47835814510472" />
<edge from="268789969" to="268789976" id="268789969to268789976" numLanes="1" shape="93.58897747186711,-390.77541825943626 93.58897747186711,-390.77541825943626 76.85852963477373,-403.8307478541974 72.46133106714115,-412.6320340083912" />
<edge from="268789971" to="268789969" id="268789971to268789969" numLanes="1" shape="116.20213354972657,-397.87731493241154 116.20213354972657,-397.87731493241154 109.330538788985,-389.18592321127653 93.58897747186711,-390.77541825943626" />
<edge from="268789971" to="268789979" id="268789971to268789979" numLanes="1" shape="116.20213354972657,-397.87731493241154 136.09422190277837,-386.5567638340872 156.31997441546991,-376.07773218792863 156.31997441546991,-376.07773218792863" />
<edge from="268789971" to="268789973" id="268789971to268789973" numLanes="1" shape="116.20213354972657,-397.87731493241154 106.8030664245598,-407.3824446403887 90.96050763170933,-420.91601534490474 90.96050763170933,-420.91601534490474" />
<edge from="268789973" to="268789971" id="268789973to268789971" numLanes="1" shape="90.96050763170933,-420.91601534490474 90.96050763170933,-420.91601534490474 106.8030664245598,-407.3824446403887 116.20213354972657,-397.87731493241154" />
<edge from="268789973" to="268790030" id="268789973to268790030" numLanes="1" shape="90.96050763170933,-420.91601534490474 76.95372477261117,-465.94181205448695" />
<edge from="268789973" to="268789976" id="268789973to268789976" numLanes="1" shape="90.96050763170933,-420.91601534490474 79.57717361091636,-419.44403565558605 72.46133106714115,-412.6320340083912 72.46133106714115,-412.6320340083912" />
<edge from="268789976" to="268789973" id="268789976to268789973" numLanes="1" shape="72.46133106714115,-412.6320340083912 72.46133106714115,-412.6320340083912 79.57717361091636,-419.44403565558605 90.96050763170933,-420.91601534490474" />
<edge from="268789976" to="268789969" id="268789976to268789969" numLanes="1" shape="72.46133106714115,-412.6320340083912 76.85852963477373,-403.8307478541974 93.58897747186711,-390.77541825943626 93.58897747186711,-390.77541825943626" />
<edge from="268789976" to="330653141" id="268789976to330653141" numLanes="1" shape="72.46133106714115,-412.6320340083912 54.937649437692016,-422.5772148761898 39.73819856485352,-427.81798338121735 -5.379631195974071,-442.42466627340764 -5.379631195974071,-442.42466627340764" />
<edge from="268789979" to="268789971" id="268789979to268789971" numLanes="1" shape="156.31997441546991,-376.07773218792863 156.31997441546991,-376.07773218792863 136.09422190277837,-386.5567638340872 116.20213354972657,-397.87731493241154" />
<edge from="268789979" to="330653324" id="268789979to330653324" numLanes="1" shape="156.31997441546991,-376.07773218792863 181.2754541109898,-358.00388227566145" />
<edge from="268789979" to="330774715" id="268789979to330774715" numLanes="1" shape="156.31997441546991,-376.07773218792863 171.33696369209792,-395.4550452581607" />
<edge from="268789985" to="268789874" id="268789985to268789874" numLanes="1" shape="251.5554597985465,-119.03979360009544 251.5554597985465,-119.03979360009544 340.2813787726336,-140.7394974527415 358.3042402843712,-148.69009113544598" />
<edge from="268789985" to="330612027" id="268789985to330612027" numLanes="1" shape="251.5554597985465,-119.03979360009544 227.13492299168138,-215.49475565948524" />
<edge from="268789985" to="330593601" id="268789985to330593601" numLanes="1" shape="251.5554597985465,-119.03979360009544 269.35553356137825,-56.6617221464403" />
<edge from="268789987" to="330593605" id="268789987to330593605" numLanes="1" shape="191.79839000845095,7.617361471988261 131.6049516039202,35.8343759002164" />
<edge from="268789987" to="330593595" id="268789987to330593595" numLanes="1" shape="191.79839000845095,7.617361471988261 237.80170858470956,-40.17666276078671" />
<edge from="268789987" to="268789988" id="268789987to268789988" numLanes="1" shape="191.79839000845095,7.617361471988261 112.92187930160435,-20.745733201038092" />
<edge from="268789987" to="330593618" id="268789987to330593618" numLanes="1" shape="191.79839000845095,7.617361471988261 230.74154768465087,42.94645344512537" />
<edge from="268789988" to="268789987" id="268789988to268789987" numLanes="1" shape="112.92187930160435,-20.745733201038092 191.79839000845095,7.617361471988261" />
<edge from="268789988" to="330576364" id="268789988to330576364" numLanes="1" shape="112.92187930160435,-20.745733201038092 97.19072446238715,6.298091918462887" />
<edge from="268789988" to="268789990" id="268789988to268789990" numLanes="1" shape="112.92187930160435,-20.745733201038092 88.82201973110205,-42.89202168141492" />
<edge from="268789990" to="268789988" id="268789990to268789988" numLanes="1" shape="88.82201973110205,-42.89202168141492 112.92187930160435,-20.745733201038092" />
<edge from="268789990" to="330612029" id="268789990to330612029" numLanes="1" shape="88.82201973110205,-42.89202168141492 23.281560792878736,-47.18501962767914" />
<edge from="268789990" to="330612032" id="268789990to330612032" numLanes="1" shape="88.82201973110205,-42.89202168141492 82.02368566341465,-56.751389225479215" />
<edge from="268789999" to="330612046" id="268789999to330612046" numLanes="1" shape="65.47134248027578,-151.26129782828502 66.04059575602878,-120.66105831111781" />
<edge from="268789999" to="268790000" id="268789999to268790000" numLanes="1" shape="65.47134248027578,-151.26129782828502 65.45310486649396,-178.95451596402563" />
<edge from="268789999" to="330612289" id="268789999to330612289" numLanes="1" shape="65.47134248027578,-151.26129782828502 48.51156081142835,-175.696257669013" />
<edge from="268790000" to="268789999" id="268790000to268789999" numLanes="1" shape="65.45310486649396,-178.95451596402563 65.47134248027578,-151.26129782828502" />
<edge from="268790000" to="330612289" id="268790000to330612289" numLanes="1" shape="65.45310486649396,-178.95451596402563 48.51156081142835,-175.696257669013" />
<edge from="268790000" to="3371735080" id="268790000to3371735080" numLanes="1" shape="65.45310486649396,-178.95451596402563 132.50988292496186,-193.47835814510472" />
<edge from="268790010" to="330653179" id="268790010to330653179" numLanes="1" shape="-101.72433860349702,-465.3928456194699 -110.60489053669153,-435.96962190116756" />
<edge from="268790010" to="268790016" id="268790010to268790016" numLanes="1" shape="-101.72433860349702,-465.3928456194699 -176.66972249012906,-473.55007000942715" />
<edge from="268790010" to="330653246" id="268790010to330653246" numLanes="1" shape="-101.72433860349702,-465.3928456194699 -85.4709168773843,-463.11930481530726" />
<edge from="268790016" to="268790010" id="268790016to268790010" numLanes="1" shape="-176.66972249012906,-473.55007000942715 -101.72433860349702,-465.3928456194699" />
<edge from="268790016" to="330653884" id="268790016to330653884" numLanes="1" shape="-176.66972249012906,-473.55007000942715 -170.71162788727088,-594.516008743085" />
<edge from="268790016" to="672642687" id="268790016to672642687" numLanes="1" shape="-176.66972249012906,-473.55007000942715 -286.72359103464987,-482.19829499186017 -289.380618878582,-482.1570907996502 -295.1068005740526,-482.07343675382435 -295.1068005740526,-482.07343675382435" />
<edge from="268790019" to="330648058" id="268790019to330648058" numLanes="1" shape="-313.3264394775615,-481.79720277525485 -314.07115483644884,-469.8284433367662" />
<edge from="268790019" to="330653928" id="268790019to330653928" numLanes="1" shape="-313.3264394775615,-481.79720277525485 -349.1662683164468,-491.0342754831072" />
<edge from="268790019" to="672642687" id="268790019to672642687" numLanes="1" shape="-313.3264394775615,-481.79720277525485 -295.1068005740526,-482.07343675382435" />
<edge from="268790030" to="268789973" id="268790030to268789973" numLanes="1" shape="76.95372477261117,-465.94181205448695 90.96050763170933,-420.91601534490474" />
<edge from="268790030" to="268790035" id="268790030to268790035" numLanes="1" shape="76.95372477261117,-465.94181205448695 60.206504806352314,-520.6144011442084" />
<edge from="268790030" to="330653290" id="268790030to330653290" numLanes="1" shape="76.95372477261117,-465.94181205448695 44.995737857883796,-468.3119814558886" />
<edge from="268790035" to="268790030" id="268790035to268790030" numLanes="1" shape="60.206504806352314,-520.6144011442084 76.95372477261117,-465.94181205448695" />
<edge from="268790035" to="330653353" id="268790035to330653353" numLanes="1" shape="60.206504806352314,-520.6144011442084 46.68867392023094,-558.0990011470858" />
<edge from="268790035" to="330653296" id="268790035to330653296" numLanes="1" shape="60.206504806352314,-520.6144011442084 141.789616895956,-515.9823734648526" />
<edge from="268790945" to="268789959" id="268790945to268789959" numLanes="1" shape="980.8482320323237,1187.872097331332 980.2436415405245,1115.9533043871634" />
<edge from="268790945" to="3263038277" id="268790945to3263038277" numLanes="1" shape="980.8482320323237,1187.872097331332 965.4090096242144,1192.7953659489285 968.8078223757911,1230.6754420960788 946.3712415927439,1238.406586613506 925.1241971408017,1241.3564559766091 925.1241971408017,1241.3564559766091" />
<edge from="268790945" to="268789836" id="268790945to268789836" numLanes="1" shape="980.8482320323237,1187.872097331332 1004.5856268891948,1183.5766474597622 1037.4711164569017,1177.6171710283961 1046.6950861508958,1175.9418413317762 1046.6950861508958,1175.9418413317762" />
<edge from="275675438" to="275675439" id="275675438to275675439" numLanes="1" shape="13.729233632795513,-651.7521627165843 7.599563864292577,-688.42950730538" />
<edge from="275675438" to="330780202" id="275675438to330780202" numLanes="1" shape="13.729233632795513,-651.7521627165843 19.597651619813405,-633.4108663238585" />
<edge from="275675438" to="330653267" id="275675438to330653267" numLanes="1" shape="13.729233632795513,-651.7521627165843 -53.613114732084796,-630.8569027567282 -57.68352537037572,-621.156422794098 -51.05304250802146,-609.0771748137195 0.06635293748695403,-611.2660456858575 0.06635293748695403,-611.2660456858575" />
<edge from="275675439" to="275675438" id="275675439to275675438" numLanes="1" shape="7.599563864292577,-688.42950730538 13.729233632795513,-651.7521627165843" />
<edge from="275675439" to="330653997" id="275675439to330653997" numLanes="1" shape="7.599563864292577,-688.42950730538 6.349989979877137,-728.8486252438743" />
<edge from="275675439" to="330780155" id="275675439to330780155" numLanes="1" shape="7.599563864292577,-688.42950730538 32.12495281279553,-690.8700567132328" />
<edge from="275675440" to="275675441" id="275675440to275675441" numLanes="1" shape="14.478932362340856,-773.8525218036957 44.78347119013779,-852.566449154634" />
<edge from="275675440" to="2166694709" id="275675440to2166694709" numLanes="1" shape="14.478932362340856,-773.8525218036957 8.447667386964895,-759.7997282824945" />
<edge from="275675440" to="330654000" id="275675440to330654000" numLanes="1" shape="14.478932362340856,-773.8525218036957 81.7142814140534,-772.7497066596989" />
<edge from="275675441" to="275675440" id="275675441to275675440" numLanes="1" shape="44.78347119013779,-852.566449154634 14.478932362340856,-773.8525218036957" />
<edge from="275675441" to="330654010" id="275675441to330654010" numLanes="1" shape="44.78347119013779,-852.566449154634 46.83046652155463,-871.5398347668815 47.46025153581286,-885.7201471889857 47.46025153581286,-885.7201471889857" />
<edge from="275675441" to="330653996" id="275675441to330653996" numLanes="1" shape="44.78347119013779,-852.566449154634 18.271402185200714,-854.3225946279708 -7.223846894339658,-853.3611108565237 -59.84668327384861,-846.0581857708748 -77.3523334520869,-842.709699831903 -77.3523334520869,-842.709699831903" />
<edge from="275676971" to="330648051" id="275676971to330648051" numLanes="1" shape="-481.8902600380825,-686.9079254989047 -525.7755038664327,-766.9905012103263" />
<edge from="275676971" to="330653923" id="275676971to330653923" numLanes="1" shape="-481.8902600380825,-686.9079254989047 -385.5257435343228,-718.7525484855287 -300.33171204588143,-761.2687961224001 -300.33171204588143,-761.2687961224001" />
<edge from="275676971" to="330648048" id="275676971to330648048" numLanes="1" shape="-481.8902600380825,-686.9079254989047 -500.49548164370935,-677.8158892297652 -518.5352065458428,-661.0612327631097 -531.1149821351282,-632.0469177816994 -542.2500513406703,-595.1403991668485 -556.5456747820135,-570.4673027477693 -569.0597488115309,-548.4317869278602 -569.0597488115309,-548.4317869278602" />
<edge from="275676975" to="2164168463" id="275676975to2164168463" numLanes="1" shape="54.522041310032364,-997.1116371401586 65.07133918837644,-1001.9100466752425 73.04845989623573,-1003.6814468000084 98.65725475770887,-1002.99530787603 129.08821163518587,-1000.0895921054762 165.73509100545198,-996.7380062302109 165.73509100545198,-996.7380062302109" />
<edge from="275676975" to="2167078771" id="275676975to2167078771" numLanes="1" shape="54.522041310032364,-997.1116371401586 49.067683398141526,-985.9471511789598 46.43381970375776,-974.5810133127961 45.91421890631318,-963.4313658191822 46.97225257870741,-950.616461802274 47.30442614335334,-933.928511923179 47.30442614335334,-933.928511923179" />
<edge from="275676975" to="6590511582" id="275676975to6590511582" numLanes="1" shape="54.522041310032364,-997.1116371401586 40.15713049453916,-1006.0488410813268 15.939328009204473,-1013.032027839683 4.41258705756627,-1026.7002050178126 4.41258705756627,-1026.7002050178126" />
<edge from="275676976" to="275676977" id="275676976to275676977" numLanes="1" shape="206.48287852638168,-985.7454351724591 236.32291311351582,-970.1192856049165" />
<edge from="275676976" to="2164168463" id="275676976to2164168463" numLanes="1" shape="206.48287852638168,-985.7454351724591 165.73509100545198,-996.7380062302109" />