<connections>
<connection from="668672574to245674992" to="245674992to668672574" />
<connection from="668672574to245674992" to="245674992to6583550562" />
<connection from="668672574to245674992" to="245674992to667357326" />
<connection from="6583550562to245674992" to="245674992to668672574" />
<connection from="6583550562to245674992" to="245674992to6583550562" />
<connection from="6583550562to245674992" to="245674992to667357326" />
<connection from="667357326to245674992" to="245674992to668672574" />
<connection from="667357326to245674992" to="245674992to6583550562" />
<connection from="667357326to245674992" to="245674992to667357326" />
<connection from="667357310to667357309" to="667357309to667357310" />
<connection from="667357310to667357309" to="667357309to668660548" />
<connection from="667357310to667357309" to="667357309to6627410442" />
<connection from="668660548to667357309" to="667357309to667357310" />
<connection from="668660548to667357309" to="667357309to668660548" />
<connection from="668660548to667357309" to="667357309to6627410442" />
<connection from="6627410442to667357309" to="667357309to667357310" />
<connection from="6627410442to667357309" to="667357309to668660548" />
<connection from="6627410442to667357309" to="667357309to6627410442" />
<connection from="667357309to667357310" to="667357310to667357309" />
<connection from="667357309to667357310" to="667357310to667357311" />
<connection from="667357309to667357310" to="667357310to6495983054" />
<connection from="667357311to667357310" to="667357310to667357309" />
<connection from="667357311to667357310" to="667357310to667357311" />
<connection from="667357311to667357310" to="667357310to6495983054" />
<connection from="6495983054to667357310" to="667357310to667357309" />
<connection from="6495983054to667357310" to="667357310to667357311" />
<connection from="6495983054to667357310" to="667357310to6495983054" />
<connection from="667357310to667357311" to="667357311to667357310" />
<connection from="667357310to667357311" to="667357311to5879215643" />
<connection from="667357310to667357311" to="667357311to5879215650" />
<connection from="5879215643to667357311" to="667357311to667357310" />
<connection from="5879215643to667357311" to="667357311to5879215643" />
<connection from="5879215643to667357311" to="667357311to5879215650" />
<connection from="5879215650to667357311" to="667357311to667357310" />
<connection from="5879215650to667357311" to="667357311to5879215643" />
<connection from="5879215650to667357311" to="667357311to5879215650" />
<connection from="668699249to667357317" to="667357317to668699249" />
<connection from="668699249to667357317" to="667357317to6495983054" />
<connection from="668699249to667357317" to="667357317to6568909609" />
<connection from="6495983054to667357317" to="667357317to668699249" />
<connection from="6495983054to667357317" to="667357317to6495983054" />
<connection from="6495983054to667357317" to="667357317to6568909609" />
<connection from="6568909609to667357317" to="667357317to668699249" />
<connection from="6568909609to667357317" to="667357317to6495983054" />
<connection from="6568909609to667357317" to="667357317to6568909609" />
<connection from="6568909609to667357318" to="667357318to6568909609" />
<connection from="6568909609to667357318" to="667357318to667357326" />
<connection from="6568909609to667357318" to="667357318to6495983060" />
<connection from="667357326to667357318" to="667357318to6568909609" />
<connection from="667357326to667357318" to="667357318to667357326" />
<connection from="667357326to667357318" to="667357318to6495983060" />
<connection from="6495983060to667357318" to="667357318to6568909609" />
<connection from="6495983060to667357318" to="667357318to667357326" />
<connection from="6495983060to667357318" to="667357318to6495983060" />
<connection from="6568909594to667357325" to="667357325to6568909594" />
<connection from="6568909594to667357325" to="667357325to668699249" />
<connection from="6568909594to667357325" to="667357325to5366445105" />
<connection from="6568909594to667357325" to="667357325to8666700466" />
<connection from="668699249to667357325" to="667357325to6568909594" />
<connection from="668699249to667357325" to="667357325to668699249" />
<connection from="668699249to667357325" to="667357325to5366445105" />
<connection from="668699249to667357325" to="667357325to8666700466" />
<connection from="5366445105to667357325" to="667357325to6568909594" />
<connection from="5366445105to667357325" to="667357325to668699249" />
<connection from="5366445105to667357325" to="667357325to5366445105" />
<connection from="5366445105to667357325" to="667357325to8666700466" />
<connection from="8666700466to667357325" to="667357325to6568909594" />
<connection from="8666700466to667357325" to="667357325to668699249" />
<connection from="8666700466to667357325" to="667357325to5366445105" />
<connection from="8666700466to667357325" to="667357325to8666700466" />
<connection from="245674992to667357326" to="667357326to245674992" />
<connection from="245674992to667357326" to="667357326to667357318" />
<connection from="245674992to667357326" to="667357326to6573854574" />
<connection from="667357318to667357326" to="667357326to245674992" />
<connection from="667357318to667357326" to="667357326to667357318" />
<connection from="667357318to667357326" to="667357326to6573854574" />
<connection from="6573854574to667357326" to="667357326to245674992" />
<connection from="6573854574to667357326" to="667357326to667357318" />
<connection from="6573854574to667357326" to="667357326to6573854574" />
<connection from="667357361to667357348" to="667357348to667357361" />
<connection from="6785961658to667357352" to="667357352to6785961658" />
<connection from="6785961658to667357352" to="667357352to3215340464" />
<connection from="6785961658to667357352" to="667357352to6785961623" />
<connection from="3215340464to667357352" to="667357352to6785961658" />
<connection from="3215340464to667357352" to="667357352to3215340464" />
<connection from="3215340464to667357352" to="667357352to6785961623" />
<connection from="6785961623to667357352" to="667357352to6785961658" />
<connection from="6785961623to667357352" to="667357352to3215340464" />
<connection from="6785961623to667357352" to="667357352to6785961623" />
<connection from="4348259298to667357359" to="667357359to4348259298" />
<connection from="667357348to667357361" to="667357361to667357348" />
<connection from="667357348to667357361" to="667357361to4348259298" />
<connection from="667357348to667357361" to="667357361to668672699" />
<connection from="4348259298to667357361" to="667357361to667357348" />
<connection from="4348259298to667357361" to="667357361to4348259298" />
<connection from="4348259298to667357361" to="667357361to668672699" />
<connection from="668672699to667357361" to="667357361to667357348" />
<connection from="668672699to667357361" to="667357361to4348259298" />
<connection from="668672699to667357361" to="667357361to668672699" />
<connection from="5366445082to667357367" to="667357367to5366445082" />
<connection from="5366445082to667357367" to="667357367to668620092" />
<connection from="5366445082to667357367" to="667357367to4348259329" />
<connection from="5366445082to667357367" to="667357367to4348259327" />
<connection from="668620092to667357367" to="667357367to5366445082" />
<connection from="668620092to667357367" to="667357367to668620092" />
<connection from="668620092to667357367" to="667357367to4348259329" />
<connection from="668620092to667357367" to="667357367to4348259327" />
<connection from="4348259329to667357367" to="667357367to5366445082" />
<connection from="4348259329to667357367" to="667357367to668620092" />
<connection from="4348259329to667357367" to="667357367to4348259329" />
<connection from="4348259329to667357367" to="667357367to4348259327" />
<connection from="4348259327to667357367" to="667357367to5366445082" />
<connection from="4348259327to667357367" to="667357367to668620092" />
<connection from="4348259327to667357367" to="667357367to4348259329" />
<connection from="4348259327to667357367" to="667357367to4348259327" />
<connection from="5366445105to667357368" to="667357368to5366445105" />
<connection from="5366445105to667357368" to="667357368to5879215641" />
<connection from="5366445105to667357368" to="667357368to668685375" />
<connection from="5366445105to667357368" to="667357368to5879215642" />
<connection from="5879215641to667357368" to="667357368to5366445105" />
<connection from="5879215641to667357368" to="667357368to5879215641" />
<connection from="5879215641to667357368" to="667357368to668685375" />
<connection from="5879215641to667357368" to="667357368to5879215642" />
<connection from="668685375to667357368" to="667357368to5366445105" />
<connection from="668685375to667357368" to="667357368to5879215641" />
<connection from="668685375to667357368" to="667357368to668685375" />
<connection from="668685375to667357368" to="667357368to5879215642" />
<connection from="5879215642to667357368" to="667357368to5366445105" />
<connection from="5879215642to667357368" to="667357368to5879215641" />
<connection from="5879215642to667357368" to="667357368to668685375" />
<connection from="5879215642to667357368" to="667357368to5879215642" />
<connection from="667357385to667357382" to="667357382to667357385" />
<connection from="667357385to667357382" to="667357382to5366445105" />
<connection from="667357385to667357382" to="667357382to667357387" />
<connection from="667357385to667357382" to="667357382to3215340464" />
<connection from="5366445105to667357382" to="667357382to667357385" />
<connection from="5366445105to667357382" to="667357382to5366445105" />
<connection from="5366445105to667357382" to="667357382to667357387" />
<connection from="5366445105to667357382" to="667357382to3215340464" />
<connection from="667357387to667357382" to="667357382to667357385" />
<connection from="667357387to667357382" to="667357382to5366445105" />
<connection from="667357387to667357382" to="667357382to667357387" />
<connection from="667357387to667357382" to="667357382to3215340464" />
<connection from="3215340464to667357382" to="667357382to667357385" />
<connection from="3215340464to667357382" to="667357382to5366445105" />
<connection from="3215340464to667357382" to="667357382to667357387" />
<connection from="3215340464to667357382" to="667357382to3215340464" />
<connection from="668685380to667357383" to="667357383to668685380" />
<connection from="668685380to667357383" to="667357383to5879215623" />
<connection from="668685380to667357383" to="667357383to667357387" />
<connection from="5879215623to667357383" to="667357383to668685380" />
<connection from="5879215623to667357383" to="667357383to5879215623" />
<connection from="5879215623to667357383" to="667357383to667357387" />
<connection from="667357387to667357383" to="667357383to668685380" />
<connection from="667357387to667357383" to="667357383to5879215623" />
<connection from="667357387to667357383" to="667357383to667357387" />
<connection from="667357382to667357385" to="667357385to667357382" />
<connection from="667357382to667357385" to="667357385to668685375" />
<connection from="667357382to667357385" to="667357385to667357387" />
<connection from="668685375to667357385" to="667357385to667357382" />
<connection from="668685375to667357385" to="667357385to668685375" />
<connection from="668685375to667357385" to="667357385to667357387" />
<connection from="667357387to667357385" to="667357385to667357382" />
<connection from="667357387to667357385" to="667357385to668685375" />
<connection from="667357387to667357385" to="667357385to667357387" />
<connection from="667357382to667357387" to="667357387to667357382" />
<connection from="667357382to667357387" to="667357387to667357383" />
<connection from="667357382to667357387" to="667357387to667357385" />
<connection from="667357383to667357387" to="667357387to667357382" />
<connection from="667357383to667357387" to="667357387to667357383" />
<connection from="667357383to667357387" to="667357387to667357385" />
<connection from="667357385to667357387" to="667357387to667357382" />
<connection from="667357385to667357387" to="667357387to667357383" />
<connection from="667357385to667357387" to="667357387to667357385" />
<connection from="668685380to667357392" to="667357392to668685380" />
<connection from="668685380to667357392" to="667357392to6576461331" />
<connection from="668685380to667357392" to="667357392to667357401" />
<connection from="6576461331to667357392" to="667357392to668685380" />
<connection from="6576461331to667357392" to="667357392to6576461331" />
<connection from="6576461331to667357392" to="667357392to667357401" />
<connection from="667357401to667357392" to="667357392to668685380" />
<connection from="667357401to667357392" to="667357392to6576461331" />
<connection from="667357401to667357392" to="667357392to667357401" />
<connection from="667357392to667357401" to="667357401to667357392" />
<connection from="667357392to667357401" to="667357401to667357415" />
<connection from="667357392to667357401" to="667357401to668685380" />
<connection from="667357415to667357401" to="667357401to667357392" />
<connection from="667357415to667357401" to="667357401to667357415" />
<connection from="667357415to667357401" to="667357401to668685380" />
<connection from="668685380to667357401" to="667357401to667357392" />
<connection from="668685380to667357401" to="667357401to667357415" />
<connection from="668685380to667357401" to="667357401to668685380" />
<connection from="667357405to667357403" to="667357403to667357405" />
<connection from="667357403to667357405" to="667357405to667357403" />
<connection from="667357403to667357405" to="667357405to667357409" />
<connection from="667357403to667357405" to="667357405to667357407" />
<connection from="667357409to667357405" to="667357405to667357403" />
<connection from="667357409to667357405" to="667357405to667357409" />
<connection from="667357409to667357405" to="667357405to667357407" />
<connection from="667357407to667357405" to="667357405to667357403" />
<connection from="667357407to667357405" to="667357405to667357409" />
<connection from="667357407to667357405" to="667357405to667357407" />
<connection from="667357405to667357407" to="667357407to667357405" />
<connection from="667357405to667357407" to="667357407to6785961623" />
<connection from="667357405to667357407" to="667357407to6576461331" />
<connection from="6785961623to667357407" to="667357407to667357405" />
<connection from="6785961623to667357407" to="667357407to6785961623" />
<connection from="6785961623to667357407" to="667357407to6576461331" />
<connection from="6576461331to667357407" to="667357407to667357405" />
<connection from="6576461331to667357407" to="667357407to6785961623" />
<connection from="6576461331to667357407" to="667357407to6576461331" />
<connection from="667357405to667357409" to="667357409to667357405" />
<connection from="667357405to667357409" to="667357409to667357415" />
<connection from="667357405to667357409" to="667357409to4369058864" />
<connection from="667357405to667357409" to="667357409to667357412" />
<connection from="667357415to667357409" to="667357409to667357405" />
<connection from="667357415to667357409" to="667357409to667357415" />
<connection from="667357415to667357409" to="667357409to4369058864" />
<connection from="667357415to667357409" to="667357409to667357412" />
<connection from="4369058864to667357409" to="667357409to667357405" />
<connection from="4369058864to667357409" to="667357409to667357415" />
<connection from="4369058864to667357409" to="667357409to4369058864" />
<connection from="4369058864to667357409" to="667357409to667357412" />
<connection from="667357412to667357409" to="667357409to667357405" />
<connection from="667357412to667357409" to="667357409to667357415" />
<connection from="667357412to667357409" to="667357409to4369058864" />
<connection from="667357412to667357409" to="667357409to667357412" />
<connection from="667357409to667357412" to="667357412to667357409" />
<connection from="667357409to667357412" to="667357412to667357419" />
<connection from="667357409to667357412" to="667357412to667357416" />
<connection from="667357419to667357412" to="667357412to667357409" />
<connection from="667357419to667357412" to="667357412to667357419" />
<connection from="667357419to667357412" to="667357412to667357416" />
<connection from="667357416to667357412" to="667357412to667357409" />
<connection from="667357416to667357412" to="667357412to667357419" />
<connection from="667357416to667357412" to="667357412to667357416" />
<connection from="667357401to667357415" to="667357415to667357401" />
<connection from="667357401to667357415" to="667357415to667357409" />
<connection from="667357401to667357415" to="667357415to667357416" />
<connection from="667357409to667357415" to="667357415to667357401" />
<connection from="667357409to667357415" to="667357415to667357409" />
<connection from="667357409to667357415" to="667357415to667357416" />
<connection from="667357416to667357415" to="667357415to667357401" />
<connection from="667357416to667357415" to="667357415to667357409" />
<connection from="667357416to667357415" to="667357415to667357416" />
<connection from="667357412to667357416" to="667357416to667357412" />
<connection from="667357412to667357416" to="667357416to667357415" />
<connection from="667357412to667357416" to="667357416to9169143586" />
<connection from="667357415to667357416" to="667357416to667357412" />
<connection from="667357415to667357416" to="667357416to667357415" />
<connection from="667357415to667357416" to="667357416to9169143586" />
<connection from="9169143586to667357416" to="667357416to667357412" />
<connection from="9169143586to667357416" to="667357416to667357415" />
<connection from="9169143586to667357416" to="667357416to9169143586" />
<connection from="667357412to667357419" to="667357419to667357412" />
<connection from="667357412to667357419" to="667357419to7265460758" />
<connection from="667357412to667357419" to="667357419to4348259327" />
<connection from="7265460758to667357419" to="667357419to667357412" />
<connection from="7265460758to667357419" to="667357419to7265460758" />
<connection from="7265460758to667357419" to="667357419to4348259327" />
<connection from="4348259327to667357419" to="667357419to667357412" />
<connection from="4348259327to667357419" to="667357419to7265460758" />
<connection from="4348259327to667357419" to="667357419to4348259327" />
<connection from="1990860600to667357421" to="667357421to1990860600" />
<connection from="1990860600to667357421" to="667357421to668612331" />
<connection from="1990860600to667357421" to="667357421to9169143592" />
<connection from="668612331to667357421" to="667357421to1990860600" />
<connection from="668612331to667357421" to="667357421to668612331" />
<connection from="668612331to667357421" to="667357421to9169143592" />
<connection from="9169143592to667357421" to="667357421to1990860600" />
<connection from="9169143592to667357421" to="667357421to668612331" />
<connection from="9169143592to667357421" to="667357421to9169143592" />
<connection from="668672699to668478124" to="668478124to668672699" />
<connection from="667357421to668612331" to="668612331to667357421" />
<connection from="667357421to668612331" to="668612331to6573701524" />
<connection from="667357421to668612331" to="668612331to4348265099" />
<connection from="6573701524to668612331" to="668612331to667357421" />
<connection from="6573701524to668612331" to="668612331to6573701524" />
<connection from="6573701524to668612331" to="668612331to4348265099" />
<connection from="4348265099to668612331" to="668612331to667357421" />
<connection from="4348265099to668612331" to="668612331to6573701524" />
<connection from="4348265099to668612331" to="668612331to4348265099" />
<connection from="4348265098to668612391" to="668612391to4348265098" />
<connection from="667357367to668620092" to="668620092to667357367" />
<connection from="667357367to668620092" to="668620092to7147944046" />
<connection from="667357367to668620092" to="668620092to7147944044" />
<connection from="7147944046to668620092" to="668620092to667357367" />
<connection from="7147944046to668620092" to="668620092to7147944046" />
<connection from="7147944046to668620092" to="668620092to7147944044" />
<connection from="7147944044to668620092" to="668620092to667357367" />
<connection from="7147944044to668620092" to="668620092to7147944046" />
<connection from="7147944044to668620092" to="668620092to7147944044" />
<connection from="667357309to668660548" to="668660548to667357309" />
<connection from="5879215645to668660552" to="668660552to5879215645" />
<connection from="5879215645to668660552" to="668660552to668660560" />
<connection from="668660560to668660552" to="668660552to5879215645" />
<connection from="668660560to668660552" to="668660552to668660560" />
<connection from="668660552to668660560" to="668660560to668660552" />
<connection from="245674992to668672574" to="668672574to245674992" />
<connection from="245674992to668672574" to="668672574to6571330023" />
<connection from="245674992to668672574" to="668672574to4348259295" />
<connection from="6571330023to668672574" to="668672574to245674992" />
<connection from="6571330023to668672574" to="668672574to6571330023" />
<connection from="6571330023to668672574" to="668672574to4348259295" />
<connection from="4348259295to668672574" to="668672574to245674992" />
<connection from="4348259295to668672574" to="668672574to6571330023" />
<connection from="4348259295to668672574" to="668672574to4348259295" />
<connection from="667357361to668672699" to="668672699to667357361" />
<connection from="667357361to668672699" to="668672699to668478124" />
<connection from="667357361to668672699" to="668672699to4348259295" />
<connection from="667357361to668672699" to="668672699to5366445092" />
<connection from="668478124to668672699" to="668672699to667357361" />
<connection from="668478124to668672699" to="668672699to668478124" />
<connection from="668478124to668672699" to="668672699to4348259295" />
<connection from="668478124to668672699" to="668672699to5366445092" />
<connection from="4348259295to668672699" to="668672699to667357361" />
<connection from="4348259295to668672699" to="668672699to668478124" />
<connection from="4348259295to668672699" to="668672699to4348259295" />
<connection from="4348259295to668672699" to="668672699to5366445092" />
<connection from="5366445092to668672699" to="668672699to667357361" />
<connection from="5366445092to668672699" to="668672699to668478124" />
<connection from="5366445092to668672699" to="668672699to4348259295" />
<connection from="5366445092to668672699" to="668672699to5366445092" />
<connection from="6583550562to668672700" to="668672700to6583550562" />
<connection from="6583550562to668672700" to="668672700to5366445083" />
<connection from="6583550562to668672700" to="668672700to5077600694" />
<connection from="5366445083to668672700" to="668672700to6583550562" />
<connection from="5366445083to668672700" to="668672700to5366445083" />
<connection from="5366445083to668672700" to="668672700to5077600694" />
<connection from="5077600694to668672700" to="668672700to6583550562" />
<connection from="5077600694to668672700" to="668672700to5366445083" />
<connection from="5077600694to668672700" to="668672700to5077600694" />
<connection from="6573701524to668672704" to="668672704to6573701524" />
<connection from="6573701524to668672704" to="668672704to5366445082" />
<connection from="6573701524to668672704" to="668672704to5584937650" />
<connection from="5366445082to668672704" to="668672704to6573701524" />
<connection from="5366445082to668672704" to="668672704to5366445082" />
<connection from="5366445082to668672704" to="668672704to5584937650" />
<connection from="5584937650to668672704" to="668672704to6573701524" />
<connection from="5584937650to668672704" to="668672704to5366445082" />
<connection from="5584937650to668672704" to="668672704to5584937650" />
<connection from="667357368to668685375" to="668685375to667357368" />
<connection from="667357368to668685375" to="668685375to667357385" />
<connection from="667357368to668685375" to="668685375to5879215634" />
<connection from="667357385to668685375" to="668685375to667357368" />
<connection from="667357385to668685375" to="668685375to667357385" />
<connection from="667357385to668685375" to="668685375to5879215634" />
<connection from="5879215634to668685375" to="668685375to667357368" />
<connection from="5879215634to668685375" to="668685375to667357385" />
<connection from="5879215634to668685375" to="668685375to5879215634" />
<connection from="667357383to668685380" to="668685380to667357383" />
<connection from="667357383to668685380" to="668685380to667357392" />
<connection from="667357383to668685380" to="668685380to667357401" />
<connection from="667357392to668685380" to="668685380to667357383" />
<connection from="667357392to668685380" to="668685380to667357392" />
<connection from="667357392to668685380" to="668685380to667357401" />
<connection from="667357401to668685380" to="668685380to667357383" />
<connection from="667357401to668685380" to="668685380to667357392" />
<connection from="667357401to668685380" to="668685380to667357401" />
<connection from="668699199to668699188" to="668699188to668699199" />
<connection from="668699199to668699188" to="668699188to668699193" />
<connection from="668699193to668699188" to="668699188to668699199" />
<connection from="668699193to668699188" to="668699188to668699193" />
<connection from="668699188to668699193" to="668699193to668699188" />
<connection from="668699188to668699193" to="668699193to668699242" />
<connection from="668699242to668699193" to="668699193to668699188" />
<connection from="668699242to668699193" to="668699193to668699242" />
<connection from="668699188to668699199" to="668699199to668699188" />
<connection from="6435688924to668699237" to="668699237to6435688924" />
<connection from="6435688924to668699237" to="668699237to6627410442" />
<connection from="6435688924to668699237" to="668699237to6495983060" />
<connection from="6627410442to668699237" to="668699237to6435688924" />
<connection from="6627410442to668699237" to="668699237to6627410442" />
<connection from="6627410442to668699237" to="668699237to6495983060" />
<connection from="6495983060to668699237" to="668699237to6435688924" />
<connection from="6495983060to668699237" to="668699237to6627410442" />
<connection from="6495983060to668699237" to="668699237to6495983060" />
<connection from="668699193to668699242" to="668699242to668699193" />
<connection from="668699193to668699242" to="668699242to6435688924" />
<connection from="6435688924to668699242" to="668699242to668699193" />
<connection from="6435688924to668699242" to="668699242to6435688924" />
<connection from="667357317to668699249" to="668699249to667357317" />
<connection from="667357317to668699249" to="668699249to667357325" />
<connection from="667357317to668699249" to="668699249to5879215643" />
<connection from="667357325to668699249" to="668699249to667357317" />
<connection from="667357325to668699249" to="668699249to667357325" />
<connection from="667357325to668699249" to="668699249to5879215643" />
<connection from="5879215643to668699249" to="668699249to667357317" />
<connection from="5879215643to668699249" to="668699249to667357325" />
<connection from="5879215643to668699249" to="668699249to5879215643" />
<connection from="1990860600to1990860599" to="1990860599to1990860600" />
<connection from="667357421to1990860600" to="1990860600to667357421" />
<connection from="667357421to1990860600" to="1990860600to1990860599" />
<connection from="667357421to1990860600" to="1990860600to4348259325" />
<connection from="1990860599to1990860600" to="1990860600to667357421" />
<connection from="1990860599to1990860600" to="1990860600to1990860599" />
<connection from="1990860599to1990860600" to="1990860600to4348259325" />
<connection from="4348259325to1990860600" to="1990860600to667357421" />
<connection from="4348259325to1990860600" to="1990860600to1990860599" />
<connection from="4348259325to1990860600" to="1990860600to4348259325" />
<connection from="6785961658to2055461156" to="2055461156to6785961658" />
<connection from="7265482108to2081722939" to="2081722939to7265482108" />
<connection from="7265482108to2081722939" to="2081722939to4348259319" />
<connection from="4348259319to2081722939" to="2081722939to7265482108" />
<connection from="4348259319to2081722939" to="2081722939to4348259319" />
<connection from="3215340464to3215340463" to="3215340463to3215340464" />
<connection from="3215340464to3215340463" to="3215340463to6568909595" />
<connection from="3215340464to3215340463" to="3215340463to6568909594" />
<connection from="6568909595to3215340463" to="3215340463to3215340464" />
<connection from="6568909595to3215340463" to="3215340463to6568909595" />
<connection from="6568909595to3215340463" to="3215340463to6568909594" />
<connection from="6568909594to3215340463" to="3215340463to3215340464" />
<connection from="6568909594to3215340463" to="3215340463to6568909595" />
<connection from="6568909594to3215340463" to="3215340463to6568909594" />
<connection from="667357352to3215340464" to="3215340464to667357352" />
<connection from="667357352to3215340464" to="3215340464to667357382" />
<connection from="667357352to3215340464" to="3215340464to3215340463" />
<connection from="667357382to3215340464" to="3215340464to667357352" />
<connection from="667357382to3215340464" to="3215340464to667357382" />
<connection from="667357382to3215340464" to="3215340464to3215340463" />
<connection from="3215340463to3215340464" to="3215340464to667357352" />
<connection from="3215340463to3215340464" to="3215340464to667357382" />
<connection from="3215340463to3215340464" to="3215340464to3215340463" />
<connection from="4348259295to4348259294" to="4348259294to4348259295" />
<connection from="668672574to4348259295" to="4348259295to668672574" />
<connection from="668672574to4348259295" to="4348259295to668672699" />
<connection from="668672574to4348259295" to="4348259295to4348259294" />