<nodes>
<node id="301037251" x="155.29895071790088" y="-66.31286158040166" />
<node id="301037252" x="-498.00142301176675" y="231.76940937014297" />
<node id="301037253" x="-648.0110963736661" y="286.4741208218038" />
<node id="301037254" x="-559.2606975903036" y="480.8081330922432" />
<node id="301037255" x="-699.3127339924686" y="171.80324141541496" />
<node id="301037262" x="107.3471846600296" y="-55.48231999063864" />
<node id="301037265" x="0.12353433936368674" y="240.09796857601032" />
<node id="473651125" x="-556.5055239276262" y="468.75191186508164" />
<node id="564483317" x="-779.2655584411696" y="-3.2781678130850196" />
<node id="564483459" x="-505.22095202631317" y="207.33617659145966" />
<node id="564483461" x="-512.5852804387687" y="224.13097515143454" />
<node id="564483463" x="-489.50607406697236" y="213.07727899355814" />
<node id="564483496" x="-565.7672259935644" y="466.13295164098963" />
<node id="564483517" x="-570.5753471000353" y="475.89010499510914" />
<node id="2102480543" x="758.8788750168169" y="-450.129857447464" />
<node id="2102480576" x="481.5682919876417" y="-337.88249860098585" />
<node id="2102480797" x="614.2772505482426" y="-241.58135431306437" />
<node id="2102480799" x="918.2969501646003" y="-193.94346759142354" />
<node id="2102480800" x="868.694946368807" y="-173.82239892473444" />
<node id="2102480801" x="927.6010791636072" y="-169.61502403765917" />
<node id="2102480803" x="673.4352773313876" y="-93.55561129748821" />
<node id="2102480805" x="926.3697590600932" y="-18.782308926805854" />
<node id="2102480808" x="720.053673447459" y="31.38010365376249" />
<node id="2800415501" x="447.7953361264663" y="-2.799968497361988" />
<node id="2800415517" x="402.1512858228525" y="32.761399287730455" />
<node id="2800415522" x="419.53335632628296" y="40.47440657578409" />
<node id="3055043750" x="-330.4991330978228" y="180.42340324958786" />
<node id="3055043751" x="-343.81267348793335" y="147.69700586097315" />
<node id="3055043752" x="-460.7101325583644" y="360.9197797877714" />
<node id="3178456078" x="-333.7602641438134" y="363.95644319523126" />
<node id="3635907904" x="-754.4480935749598" y="50.95422203093767" />
<node id="3635907910" x="-893.8135042008944" y="50.57890353631228" />
<node id="3635907914" x="-593.992768239812" y="-15.457464010920376" />
<node id="3635907923" x="-925.1547433712985" y="-30.36826172284782" />
<node id="3635907929" x="-860.3202769780764" y="-177.1260834732093" />
<node id="3635907930" x="-786.176703787758" y="-220.51027786219493" />
<node id="3635907938" x="-753.203298074659" y="-267.3821475878358" />
<node id="3636291416" x="178.78957079502288" y="-56.96966582117602" />
<node id="3636291419" x="263.3705620270921" y="-56.36473367456347" />
<node id="3636291422" x="250.53668909170665" y="-61.73262082180008" />
<node id="3636985377" x="-736.0142115717754" y="95.54713949980214" />
<node id="3636985378" x="-849.2653696483467" y="147.57590242335573" />
<node id="3636985385" x="-847.4282038877718" y="195.6137446644716" />
<node id="3636985386" x="-507.60525947704446" y="193.67849004780874" />
<node id="3636985389" x="-525.8732909084065" y="158.30102333938703" />
<node id="4233524596" x="824.3838166899513" y="-543.0092640980147" />
<node id="4233524597" x="735.0004253506195" y="-508.29548306623474" />
<node id="4233524600" x="831.4004190519918" y="-447.3142252773978" />
<node id="4233524604" x="845.3735537610482" y="-389.2968026343733" />
<node id="4233524606" x="866.8604146601865" y="-367.30594599060714" />
<node id="4233524607" x="795.3390721065225" y="-354.70423150015995" />
<node id="4233524608" x="868.2931904474972" y="-313.06624543713406" />
<node id="4233524610" x="820.560768587864" y="-294.5514565431513" />
<node id="4233524611" x="573.8747496042633" y="-262.9537940151058" />
<node id="4233524615" x="626.8028281563893" y="-214.04558132588863" />
<node id="4233524616" x="588.8779786346713" y="-202.86685610329732" />
<node id="4233524617" x="558.7577831929084" y="-196.0794301070273" />
<node id="4233524618" x="881.2147019308759" y="-147.6057095634751" />
<node id="4233524619" x="646.0564030959504" y="-164.21332725556567" />
<node id="4233524620" x="630.8970557743451" y="-157.53989282250404" />
<node id="4233524625" x="660.4682830852689" y="-87.91742805484682" />
<node id="4233524626" x="-687.9271891632816" y="-108.74326428771019" />
<node id="4233524630" x="-816.160389065044" y="-79.19375509489328" />
<node id="4233524633" x="-691.6851820271695" y="-70.65207564970478" />
<node id="4233524636" x="-870.9184388107387" y="-55.24596231384203" />
<node id="4233524637" x="-752.9413694140967" y="-50.06043168762699" />
<node id="4233524638" x="-680.2312925810693" y="-48.62524654529989" />
<node id="4233524639" x="-881.1810885446612" y="-50.76534368749708" />
<node id="4233524641" x="-857.378363734344" y="-34.33435291610658" />
<node id="4233524644" x="-712.7688921536319" y="-33.730130101554096" />
<node id="4233524645" x="-435.8122699628584" y="-13.92620530584827" />
<node id="4233524646" x="794.6238312574569" y="14.14441670756787" />
<node id="4233524647" x="-743.7764145546826" y="-19.527685386128724" />
<node id="4233524648" x="-850.113831476192" y="-9.634521161671728" />
<node id="4233524652" x="-655.7249854572583" y="12.996389544103295" />
<node id="4233524653" x="708.1723243966699" y="34.94276930112392" />
<node id="4233524655" x="-828.0915984268067" y="20.167666737455875" />
<node id="4233524656" x="-687.1769732278772" y="25.80477414280176" />
<node id="4233524657" x="-767.1566471960396" y="26.864707542583346" />
<node id="4233524659" x="802.7255824874155" y="55.45753367757425" />
<node id="4233524660" x="-718.8764734701253" y="39.30717730848119" />
<node id="4233524661" x="489.1288884251844" y="60.695927523076534" />
<node id="4233524665" x="-844.9950075236848" y="59.26125180255622" />
<node id="4233524666" x="-189.08928723540157" y="80.0442626029253" />
<node id="4233524667" x="700.0857993749669" y="95.29397523682564" />
<node id="4233524684" x="-711.4073247391498" y="147.88003788795322" />
<node id="4233527006" x="-290.32650479569566" y="262.1102388817817" />
<node id="4233527008" x="-266.98916311748326" y="265.88434569258243" />
<node id="4233527012" x="-486.7732111316873" y="270.96535479603335" />
<node id="4233527014" x="-333.17370257910807" y="302.84723092475906" />
<node id="4233527016" x="-334.4042440393241" y="312.88023704942316" />
<node id="4233527017" x="-305.28547378315125" y="314.1877103121951" />
<node id="4233527018" x="-294.3675580440322" y="312.95682118367404" />
<node id="4233527019" x="-278.7659106015926" y="312.5542318150401" />
<node id="4233527020" x="-269.98988692939747" y="312.82529335981235" />
<node id="4233527021" x="-252.47678092005663" y="313.3556387955323" />
<node id="4233527022" x="-228.2031627454562" y="314.09813283616677" />
<node id="4233527043" x="-304.9994537157472" y="365.0245782183483" />
<node id="4233527044" x="-279.8437955082627" y="365.7054670266807" />
<node id="4233527045" x="-252.32061436097138" y="365.9307383308187" />
<node id="4233527053" x="-606.3299633766292" y="378.94112280523404" />
<node id="4233527073" x="-525.9211464130785" y="486.294043272268" />
<node id="4233527074" x="-590.5749382573413" y="490.4146915511228" />
<node id="4233527081" x="-471.56486912316177" y="523.471616925206" />
<node id="4233527085" x="-529.4507273229538" y="548.3362360857427" />
<node id="4233654430" x="695.492096271133" y="-423.0766617502086" />
<node id="4233654439" x="712.0199571097037" y="-397.0417298786342" />
<node id="4233654441" x="458.65135946066584" y="-398.358048254624" />
<node id="4233654446" x="745.8409738474293" y="-389.92490354552865" />
<node id="4233654463" x="384.3446560545126" y="-366.73599044885486" />
<node id="4233654465" x="698.5825527259149" y="-361.4895228371024" />
<node id="4233654471" x="538.3822395564057" y="-361.0438454821706" />
<node id="4233654478" x="344.3756387446774" y="-349.25237149652094" />
<node id="4233654485" x="444.4960461887531" y="-339.0602701092139" />
<node id="4233654488" x="706.1507949141087" y="-324.14423105539754" />
<node id="4233654500" x="663.0786956759403" y="-308.30393689032644" />
<node id="4233654501" x="900.9856973341666" y="-303.6858117529191" />
<node id="4233654504" x="431.28788105910644" y="-305.8207172942348" />
<node id="4233654506" x="505.5926764426986" y="-305.2803831472993" />
<node id="4233654507" x="878.6245664937887" y="-291.88977826433256" />
<node id="4233654514" x="791.8108949600719" y="-284.03654443239793" />
<node id="4233654516" x="160.10027652035933" y="-295.67201653076336" />
<node id="4233654517" x="618.8468395749805" y="-286.33170128334314" />
<node id="4233654523" x="177.8265842992114" y="-287.47640611883253" />
<node id="4233654533" x="744.0738548634108" y="-265.25547009008005" />
<node id="4233654535" x="724.6191424810095" y="-257.11987045546994" />
<node id="4233654536" x="861.4066506389063" y="-248.80168635491282" />
<node id="4233654546" x="691.1633313234197" y="-244.08566375123337" />
<node id="4233654551" x="744.8032459828537" y="-232.9579749335535" />
<node id="4233654563" x="650.5136938996147" y="-225.26299515366554" />
<node id="4233654565" x="854.3558752358658" y="-216.136914962437" />
<node id="4233654570" x="-654.9873550321208" y="-234.9059518026188" />
<node id="4233654579" x="-628.7950782744447" y="-213.1427250392735" />
<node id="4999014151" x="-594.5644603024703" y="134.6209307438694" />
<node id="4999014152" x="-627.843872651807" y="120.94348612707108" />
<node id="4999072803" x="-614.0869549041381" y="361.9704588879831" />
<node id="4999072804" x="-463.43050946015865" y="431.7128923619166" />
<node id="4999072807" x="-447.9682508643018" y="436.7953668641858" />
<node id="4999072808" x="-450.2204606817104" y="426.1001600851305" />
<node id="4999072816" x="-533.4048282457516" y="461.32384275924414" />
<node id="4999072817" x="-403.32282060955185" y="435.8802866744809" />
<node id="5006266347" x="182.20644305075984" y="-64.47927783569321" />
<node id="5006266348" x="305.18511566193774" y="-15.344307895284146" />
<node id="5006266354" x="485.193338246434" y="70.32458442030475" />
<node id="5251925075" x="-173.88770385889802" y="265.0675670071505" />
<node id="5253345429" x="106.816094011534" y="-93.3636315963231" />
<node id="5548736264" x="429.0252074310556" y="33.20913502154872" />
<node id="5548736265" x="430.07760100462474" y="20.64516032068059" />
<node id="5548736268" x="417.8459572553402" y="10.73152908263728" />
<node id="5548736271" x="401.7458538200008" y="19.61640444584191" />
<node id="6095470542" x="46.392054422642104" y="78.1490410710685" />
<node id="6095470546" x="19.00267123815138" y="84.48879504250363" />
<node id="6095495876" x="-989.3122550729895" y="98.63054803945124" />
<node id="6380513447" x="-796.0797537468607" y="148.11182839237154" />
<node id="6657266347" x="302.1775751422392" y="-5.598838254343718" />
<node id="6758737650" x="-434.8143498081481" y="322.6336997067556" />
<node id="6758737653" x="-468.2284824672388" y="335.7050023856573" />
<node id="9186411589" x="891.1616392955184" y="-124.69567179260775" />
<node id="9186411596" x="791.9510206656996" y="-366.4072801377624" />
<node id="9186468977" x="396.6914208359085" y="31.00953539693728" />
<node id="9835121155" x="-278.44588659435976" y="118.03617143025622" />
<node id="9835121159" x="-353.5203164507402" y="-23.112471796106547" />
<node id="9835164854" x="-622.9682899258332" y="-2.1052161622792482" />
<node id="9835164855" x="-650.6169092546916" y="-61.57797238836065" />
<node id="9835170457" x="-953.5519046949921" y="69.59160486096516" />
<node id="9835170466" x="-954.1944323555799" y="14.513487033545971" />
<node id="9835170474" x="-915.4070883105742" y="-4.935937201604247" />
<node id="9835170475" x="-962.223231173004" y="-108.09355703974143" />
<node id="9835170489" x="-1010.3256520209834" y="7.971322992350906" />
<node id="9835170498" x="-962.5920557812788" y="73.60672276141122" />
<node id="9835190659" x="-907.0187093991553" y="-171.10232668789104" />
<node id="9835190693" x="-857.5065041024936" y="-170.8997126352042" />
<node id="9835190696" x="-895.7152837527683" y="46.42012930335477" />
<node id="9835190697" x="-892.2882478196407" y="53.910427576862276" />
<node id="9835210428" x="-965.7240120213246" y="-0.6851620115339756" />
<node id="9835210429" x="-979.8803966067499" y="-10.865073699969798" />
<node id="9835218071" x="-714.3178168870509" y="377.5166678093374" />
<node id="9835228889" x="-341.9496487840079" y="416.83376383408904" />
<node id="9852876993" x="374.92412418860476" y="-189.56795780919492" />
<node id="9865511053" x="-75.94144472444896" y="-331.0504913562909" />
<node id="9865511067" x="25.057233364786953" y="-224.82554426928982" />
<node id="9865522290" x="-189.9059791447362" y="265.2295976174064" />
<node id="9865685166" x="613.4974821645301" y="-150.4196864287369" />
<node id="9865685167" x="293.5065485442756" y="-134.12866733875126" />
<node id="9865731843" x="-125.40764015528839" y="-160.14624800393358" />
<node id="9865731851" x="-254.05000193580054" y="-216.66364463977516" />
<node id="9867211682" x="362.45681979635265" y="8.043370708357543" />
<node id="9867231161" x="284.8298472551396" y="-138.7774923676625" />
<node id="9867267941" x="90.2747501351405" y="-44.8077033534646" />
<node id="9874250264" x="-328.8333710710285" y="-67.51802312303334" />
<node id="10030780559" x="-29.1680750035448" y="7.699018838815391" />
<node id="10030780565" x="-48.46638608619105" y="-104.64965241588652" />
<node id="10030780566" x="-47.258752788067795" y="-45.90227810619399" />
<node id="10030780571" x="-10.880339131923392" y="-25.026822795160115" />
<node id="10030780617" x="268.4134822569322" y="79.99229929922149" />
<node id="10030780645" x="236.0820042603882" y="-259.9805550756864" />
<node id="10030780659" x="-420.56371706177015" y="-67.40650835447013" />
<node id="10030780660" x="-761.1905168842059" y="-237.33913830621168" />
<node id="10030782395" x="-273.3425408777548" y="115.72354742744938" />
<node id="10030782400" x="-191.21896310255397" y="189.70644328556955" />
<node id="10030782410" x="-219.40527977410238" y="169.47997024003416" />
<node id="10049590718" x="-659.0917217375245" y="261.7156587773934" />
<node id="10049590721" x="-704.106056688237" y="262.9687224351801" />
<node id="10049590723" x="-1044.4051920588827" y="115.22265227604657" />
<node id="10049605855" x="-402.03595466841944" y="-32.84455532534048" />
<node id="10049605857" x="1043.0025296828244" y="-32.05144057888538" />
<node id="10049605858" x="1039.0238130900543" y="-73.94317956408486" />
<node id="10049616472" x="243.8007152870996" y="79.56412051385269" />
<node id="10049616475" x="257.1304854004411" y="85.1073854942806" />
<node id="10049646662" x="-591.6731953652343" y="380.95993195381016" />
<node id="10049646688" x="-197.07870531454682" y="103.70112772705033" />
<node id="10049647636" x="26.444244950194843" y="-3.4354990809224546" />
<node id="10049647640" x="66.45908220263664" y="32.174166227225214" />
<node id="10049664258" x="866.353041522787" y="-320.44116235896945" />
<node id="10049664259" x="849.0559137244709" y="-327.4658804773353" />
<node id="10049664267" x="577.675095128594" y="-125.21116056153551" />
<node id="10049766940" x="-419.03787140443455" y="31.424169114325196" />
<node id="10049766941" x="-429.8927124737529" y="37.23506651353091" />
</nodes>