<?xml version="1.0" encoding="UTF-8"?>

<!-- generated on 2022-10-04 17:18:13 by Eclipse SUMO netconvert Version 1.14.1
<configuration xmlns:xsi="http://www.w3.org/2001/XMLSchema-instance" xsi:noNamespaceSchemaLocation="http://sumo.dlr.de/xsd/netconvertConfiguration.xsd">

    <input>
        <node-files value="iit_madras.nod.xml"/>
        <edge-files value="iit_madras.edg.xml"/>
        <connection-files value="iit_madras.con.xml"/>
    </input>

    <output>
        <output-file value="iit_madras.net.xml"/>
    </output>

</configuration>
-->

<net version="1.9" junctionCornerDetail="5" limitTurnSpeed="5.50" xmlns:xsi="http://www.w3.org/2001/XMLSchema-instance" xsi:noNamespaceSchemaLocation="http://sumo.dlr.de/xsd/net_file.xsd">

    <location netOffset="1045.65,1244.53" convBoundary="0.00,0.00,2092.35,2485.89" origBoundary="-1045.65,-1244.53,1046.70,1241.36" projParameter="!"/>

    <edge id=":10038642609_0" function="internal">
        <lane id=":10038642609_0_0" index="0" speed="3.65" length="4.67" shape="1733.10,203.50 1734.26,204.36 1734.62,205.18 1734.19,205.96 1732.95,206.70"/>
    </edge>
    <edge id=":10038642610_0" function="internal">
        <lane id=":10038642610_0_0" index="0" speed="13.89" length="0.17" shape="1705.85,205.47 1705.67,205.47"/>
    </edge>
    <edge id=":10038642610_1" function="internal">
        <lane id=":10038642610_1_0" index="0" speed="3.65" length="2.34" shape="1705.85,205.47 1704.68,204.62 1704.32,203.80"/>
    </edge>
    <edge id=":10038642610_4" function="internal">
        <lane id=":10038642610_4_0" index="0" speed="3.65" length="2.34" shape="1704.32,203.80 1704.75,203.02 1705.98,202.27"/>
    </edge>
    <edge id=":10038642610_2" function="internal">
        <lane id=":10038642610_2_0" index="0" speed="13.89" length="0.29" shape="1705.69,202.27 1705.98,202.27"/>
    </edge>
    <edge id=":10038642610_3" function="internal">
        <lane id=":10038642610_3_0" index="0" speed="3.65" length="2.34" shape="1705.69,202.27 1706.89,203.07 1707.28,203.88"/>
    </edge>
    <edge id=":10038642610_5" function="internal">
        <lane id=":10038642610_5_0" index="0" speed="3.65" length="2.34" shape="1707.28,203.88 1706.88,204.67 1705.67,205.47"/>
    </edge>
    <edge id=":10038642616_0" function="internal">
        <lane id=":10038642616_0_0" index="0" speed="13.89" length="0.29" shape="1719.91,206.08 1719.62,206.07"/>
    </edge>
    <edge id=":10038642616_1" function="internal">
        <lane id=":10038642616_1_0" index="0" speed="3.65" length="2.34" shape="1719.91,206.08 1718.75,205.23 1718.39,204.41"/>
    </edge>
    <edge id=":10038642616_4" function="internal">
        <lane id=":10038642616_4_0" index="0" speed="3.65" length="2.34" shape="1718.39,204.41 1718.82,203.63 1720.06,202.89"/>
    </edge>
    <edge id=":10038642616_2" function="internal">
        <lane id=":10038642616_2_0" index="0" speed="13.89" length="0.31" shape="1719.76,202.87 1720.06,202.89"/>
    </edge>
    <edge id=":10038642616_3" function="internal">
        <lane id=":10038642616_3_0" index="0" speed="3.65" length="2.34" shape="1719.76,202.87 1720.92,203.72 1721.29,204.54"/>
    </edge>
    <edge id=":10038642616_5" function="internal">
        <lane id=":10038642616_5_0" index="0" speed="3.65" length="2.34" shape="1721.29,204.54 1720.85,205.32 1719.62,206.07"/>
    </edge>
    <edge id=":2018053792_0" function="internal">
        <lane id=":2018053792_0_0" index="0" speed="13.89" length="0.27" shape="0.64,450.86 0.63,450.78 0.63,450.73 0.62,450.67 0.60,450.60"/>
    </edge>
    <edge id=":2018053792_1" function="internal">
        <lane id=":2018053792_1_0" index="0" speed="3.65" length="2.34" shape="0.64,450.86 1.37,449.62 2.15,449.18"/>
    </edge>
    <edge id=":2018053792_4" function="internal">
        <lane id=":2018053792_4_0" index="0" speed="3.65" length="2.34" shape="2.15,449.18 2.97,449.53 3.83,450.69"/>
    </edge>
    <edge id=":2018053792_2" function="internal">
        <lane id=":2018053792_2_0" index="0" speed="13.89" length="0.82" shape="3.72,449.88 3.77,450.11 3.80,450.28 3.82,450.44 3.83,450.69"/>
    </edge>
    <edge id=":2018053792_3" function="internal">
        <lane id=":2018053792_3_0" index="0" speed="3.65" length="2.34" shape="3.72,449.88 3.21,451.23 2.52,451.80"/>
    </edge>
    <edge id=":2018053792_5" function="internal">
        <lane id=":2018053792_5_0" index="0" speed="3.65" length="2.34" shape="2.52,451.80 1.65,451.59 0.60,450.60"/>
    </edge>
    <edge id=":2158634730_0" function="internal">
        <lane id=":2158634730_0_0" index="0" speed="13.89" length="0.10" shape="1890.00,293.58 1890.01,293.67"/>
    </edge>
    <edge id=":2158634730_1" function="internal">
        <lane id=":2158634730_1_0" index="0" speed="3.65" length="2.34" shape="1890.00,293.58 1890.67,292.30 1891.43,291.82"/>
    </edge>
    <edge id=":2158634730_4" function="internal">
        <lane id=":2158634730_4_0" index="0" speed="3.65" length="2.34" shape="1891.43,291.82 1892.27,292.14 1893.18,293.25"/>
    </edge>
    <edge id=":2158634730_2" function="internal">
        <lane id=":2158634730_2_0" index="0" speed="13.89" length="0.10" shape="1893.17,293.16 1893.18,293.25"/>
    </edge>
    <edge id=":2158634730_3" function="internal">
        <lane id=":2158634730_3_0" index="0" speed="3.65" length="2.34" shape="1893.17,293.16 1892.57,294.47 1891.85,295.00"/>
    </edge>
    <edge id=":2158634730_5" function="internal">
        <lane id=":2158634730_5_0" index="0" speed="3.65" length="2.34" shape="1891.85,295.00 1890.99,294.73 1890.01,293.67"/>
    </edge>
    <edge id=":2164168453_0" function="internal">
        <lane id=":2164168453_0_0" index="0" speed="6.04" length="9.07" shape="1234.23,234.18 1232.53,232.23 1230.72,231.48 1228.82,231.91 1226.81,233.54"/>
    </edge>
    <edge id=":2164168453_1" function="internal">
        <lane id=":2164168453_1_0" index="0" speed="13.89" length="14.11" shape="1234.23,234.18 1232.33,231.09 1230.76,228.01 1229.58,224.78 1228.85,221.26"/>
    </edge>
    <edge id=":2164168453_2" function="internal">
        <lane id=":2164168453_2_0" index="0" speed="3.65" length="1.44" shape="1234.23,234.18 1234.24,232.73"/>
    </edge>
    <edge id=":2164168453_9" function="internal">
        <lane id=":2164168453_9_0" index="0" speed="3.65" length="3.23" shape="1234.24,232.73 1234.70,231.96 1235.58,231.86 1236.91,232.43"/>
    </edge>
    <edge id=":2164168453_3" function="internal">
        <lane id=":2164168453_3_0" index="0" speed="13.89" length="12.71" shape="1232.02,220.84 1232.68,224.16 1233.69,226.93 1235.09,229.55 1236.91,232.43"/>
    </edge>
    <edge id=":2164168453_4" function="internal">
        <lane id=":2164168453_4_0" index="0" speed="11.43" length="3.12" shape="1232.02,220.84 1232.00,223.96"/>
    </edge>
    <edge id=":2164168453_5" function="internal">
        <lane id=":2164168453_5_0" index="0" speed="3.65" length="1.44" shape="1232.02,220.84 1231.38,222.14"/>
    </edge>
    <edge id=":2164168453_10" function="internal">
        <lane id=":2164168453_10_0" index="0" speed="11.43" length="11.04" shape="1232.00,223.96 1231.12,227.12 1229.40,230.31 1226.81,233.54"/>
    </edge>
    <edge id=":2164168453_11" function="internal">
        <lane id=":2164168453_11_0" index="0" speed="3.65" length="3.23" shape="1231.38,222.14 1230.64,222.64 1229.80,222.35 1228.85,221.26"/>
    </edge>
    <edge id=":2164168453_6" function="internal">
        <lane id=":2164168453_6_0" index="0" speed="10.27" length="11.35" shape="1224.47,231.36 1226.61,228.71 1228.06,226.14 1228.81,223.66 1228.85,221.26"/>
    </edge>
    <edge id=":2164168453_7" function="internal">
        <lane id=":2164168453_7_0" index="0" speed="7.63" length="15.22" shape="1224.47,231.36 1227.83,228.64 1231.03,227.91 1234.06,229.17 1236.91,232.43"/>
    </edge>
    <edge id=":2164168453_8" function="internal">
        <lane id=":2164168453_8_0" index="0" speed="3.65" length="4.67" shape="1224.47,231.36 1225.87,231.03 1226.73,231.28 1227.04,232.11 1226.81,233.54"/>
    </edge>
    <edge id=":2164168463_0" function="internal">
        <lane id=":2164168463_0_0" index="0" speed="13.89" length="14.57" shape="1219.95,251.76 1216.39,250.83 1212.88,250.00 1209.34,249.34 1205.69,248.88"/>
    </edge>
    <edge id=":2164168463_1" function="internal">
        <lane id=":2164168463_1_0" index="0" speed="7.42" length="4.72" shape="1219.95,251.76 1215.60,249.93"/>
    </edge>
    <edge id=":2164168463_2" function="internal">
        <lane id=":2164168463_2_0" index="0" speed="3.65" length="1.44" shape="1219.95,251.76 1219.00,250.68"/>
    </edge>
    <edge id=":2164168463_9" function="internal">
        <lane id=":2164168463_9_0" index="0" speed="7.42" length="11.81" shape="1215.60,249.93 1215.41,249.85 1213.33,247.24 1213.71,243.92 1216.55,239.89"/>
    </edge>
    <edge id=":2164168463_10" function="internal">
        <lane id=":2164168463_10_0" index="0" speed="3.65" length="3.23" shape="1219.00,250.68 1218.83,249.80 1219.42,249.13 1220.79,248.67"/>
    </edge>
    <edge id=":2164168463_3" function="internal">
        <lane id=":2164168463_3_0" index="0" speed="5.71" length="9.20" shape="1218.89,242.07 1217.31,244.31 1217.10,246.15 1218.26,247.61 1220.79,248.67"/>
    </edge>
    <edge id=":2164168463_4" function="internal">
        <lane id=":2164168463_4_0" index="0" speed="11.57" length="15.35" shape="1218.89,242.07 1215.49,245.26 1212.16,247.47 1208.89,248.67 1205.69,248.88"/>
    </edge>
    <edge id=":2164168463_5" function="internal">
        <lane id=":2164168463_5_0" index="0" speed="3.65" length="4.67" shape="1218.89,242.07 1217.49,242.40 1216.63,242.15 1216.32,241.31 1216.55,239.89"/>
    </edge>
    <edge id=":2164168463_6" function="internal">
        <lane id=":2164168463_6_0" index="0" speed="10.46" length="12.43" shape="1205.98,245.69 1208.43,245.49 1211.01,244.46 1213.71,242.59 1216.55,239.89"/>
    </edge>
    <edge id=":2164168463_7" function="internal">
        <lane id=":2164168463_7_0" index="0" speed="13.89" length="15.12" shape="1205.98,245.69 1209.72,246.17 1213.44,246.87 1217.14,247.72 1220.79,248.67"/>
    </edge>
    <edge id=":2164168463_8" function="internal">
        <lane id=":2164168463_8_0" index="0" speed="3.65" length="1.44" shape="1205.98,245.69 1207.11,246.60"/>
    </edge>
    <edge id=":2164168463_11" function="internal">
        <lane id=":2164168463_11_0" index="0" speed="3.65" length="3.23" shape="1207.11,246.60 1207.43,247.43 1206.96,248.19 1205.69,248.88"/>
    </edge>
    <edge id=":2164168482_0" function="internal">
        <lane id=":2164168482_0_0" index="0" speed="13.89" length="14.32" shape="838.91,649.86 824.60,649.33"/>
    </edge>
    <edge id=":2164168482_1" function="internal">
        <lane id=":2164168482_1_0" index="0" speed="8.86" length="3.63" shape="838.91,649.86 835.49,649.15 835.38,649.08"/>
    </edge>
    <edge id=":2164168482_2" function="internal">
        <lane id=":2164168482_2_0" index="0" speed="3.65" length="1.44" shape="838.91,649.86 837.75,649.01"/>
    </edge>
    <edge id=":2164168482_9" function="internal">
        <lane id=":2164168482_9_0" index="0" speed="8.86" length="10.64" shape="835.38,649.08 832.79,647.38 830.80,644.55 829.54,640.66"/>
    </edge>
    <edge id=":2164168482_10" function="internal">
        <lane id=":2164168482_10_0" index="0" speed="3.65" length="3.23" shape="837.75,649.01 837.39,648.19 837.83,647.41 839.07,646.67"/>
    </edge>
    <edge id=":2164168482_3" function="internal">
        <lane id=":2164168482_3_0" index="0" speed="7.25" length="9.26" shape="832.84,640.85 833.66,643.30 834.97,645.09 836.77,646.21 839.07,646.67"/>
    </edge>
    <edge id=":2164168482_4" function="internal">
        <lane id=":2164168482_4_0" index="0" speed="7.46" length="14.30" shape="832.84,640.85 833.00,644.66 831.68,647.34 828.88,648.90 824.60,649.33"/>
    </edge>
    <edge id=":2164168482_5" function="internal">
        <lane id=":2164168482_5_0" index="0" speed="3.69" length="4.83" shape="832.84,640.85 831.95,642.04 831.10,642.41 830.29,641.95 829.54,640.66"/>
    </edge>
    <edge id=":2164168482_6" function="internal">
        <lane id=":2164168482_6_0" index="0" speed="6.01" length="8.86" shape="824.68,646.13 827.24,645.85 828.90,644.84 829.67,643.11 829.54,640.66"/>
    </edge>
    <edge id=":2164168482_7" function="internal">
        <lane id=":2164168482_7_0" index="0" speed="13.89" length="14.40" shape="824.68,646.13 839.07,646.67"/>
    </edge>
    <edge id=":2164168482_8" function="internal">
        <lane id=":2164168482_8_0" index="0" speed="3.65" length="1.44" shape="824.68,646.13 825.86,646.96"/>
    </edge>
    <edge id=":2164168482_11" function="internal">
        <lane id=":2164168482_11_0" index="0" speed="3.65" length="3.23" shape="825.86,646.96 826.24,647.77 825.82,648.56 824.60,649.33"/>
    </edge>
    <edge id=":2164208476_0" function="internal">
        <lane id=":2164208476_0_0" index="0" speed="6.24" length="5.46" shape="1887.93,1458.30 1886.85,1459.24 1885.67,1459.78 1884.37,1459.92 1882.97,1459.67"/>
    </edge>
    <edge id=":2164208476_1" function="internal">
        <lane id=":2164208476_1_0" index="0" speed="3.65" length="1.44" shape="1887.93,1458.30 1886.53,1458.66"/>
    </edge>
    <edge id=":2164208476_4" function="internal">
        <lane id=":2164208476_4_0" index="0" speed="3.65" length="3.23" shape="1886.53,1458.66 1885.67,1458.42 1885.35,1457.58 1885.56,1456.16"/>
    </edge>
    <edge id=":2164208476_2" function="internal">
        <lane id=":2164208476_2_0" index="0" speed="3.99" length="1.82" shape="1883.90,1456.61 1884.37,1456.70 1884.81,1456.65 1885.20,1456.47 1885.56,1456.16"/>
    </edge>
    <edge id=":2164208476_3" function="internal">
        <lane id=":2164208476_3_0" index="0" speed="3.65" length="1.32" shape="1883.90,1456.61 1884.74,1457.63"/>
    </edge>
    <edge id=":2164208476_5" function="internal">
        <lane id=":2164208476_5_0" index="0" speed="3.65" length="3.35" shape="1884.74,1457.63 1884.82,1457.73 1884.96,1458.61 1884.35,1459.26 1882.97,1459.67"/>
    </edge>
    <edge id=":2164208484_0" function="internal">
        <lane id=":2164208484_0_0" index="0" speed="13.89" length="0.96" shape="1845.40,1478.69 1845.24,1478.93 1845.13,1479.08 1844.99,1479.23 1844.79,1479.43"/>
    </edge>
    <edge id=":2164208484_1" function="internal">
        <lane id=":2164208484_1_0" index="0" speed="3.65" length="1.44" shape="1845.40,1478.69 1844.07,1479.25"/>
    </edge>
    <edge id=":2164208484_4" function="internal">
        <lane id=":2164208484_4_0" index="0" speed="3.65" length="3.23" shape="1844.07,1479.25 1843.18,1479.14 1842.74,1478.36 1842.74,1476.92"/>
    </edge>
    <edge id=":2164208484_2" function="internal">
        <lane id=":2164208484_2_0" index="0" speed="13.89" length="0.32" shape="1842.53,1477.17 1842.60,1477.10 1842.64,1477.05 1842.68,1477.00 1842.74,1476.92"/>
    </edge>
    <edge id=":2164208484_3" function="internal">
        <lane id=":2164208484_3_0" index="0" speed="3.65" length="1.44" shape="1842.53,1477.17 1843.95,1476.89"/>
    </edge>
    <edge id=":2164208484_5" function="internal">
        <lane id=":2164208484_5_0" index="0" speed="3.65" length="3.23" shape="1843.95,1476.89 1844.80,1477.17 1845.08,1478.02 1844.79,1479.43"/>
    </edge>
    <edge id=":2166694704_0" function="internal">
        <lane id=":2166694704_0_0" index="0" speed="7.74" length="13.52" shape="956.09,476.35 953.58,476.77 951.67,478.63 950.36,481.92 949.65,486.64"/>
    </edge>
    <edge id=":2166694704_1" function="internal">
        <lane id=":2166694704_1_0" index="0" speed="12.51" length="17.22" shape="956.09,476.35 952.72,476.57 949.11,477.92 945.27,480.38 941.19,483.97"/>
    </edge>
    <edge id=":2166694704_2" function="internal">
        <lane id=":2166694704_2_0" index="0" speed="3.65" length="1.29" shape="956.09,476.35 955.09,475.53"/>
    </edge>
    <edge id=":2166694704_9" function="internal">
        <lane id=":2166694704_9_0" index="0" speed="3.65" length="3.38" shape="955.09,475.53 954.97,475.43 954.66,474.59 955.14,473.84 956.42,473.17"/>
    </edge>
    <edge id=":2166694704_3" function="internal">
        <lane id=":2166694704_3_0" index="0" speed="13.47" length="20.04" shape="938.94,481.69 943.59,477.65 948.05,474.88 952.32,473.39 956.42,473.17"/>
    </edge>
    <edge id=":2166694704_4" function="internal">
        <lane id=":2166694704_4_0" index="0" speed="7.48" length="7.57" shape="938.94,481.69 944.10,477.56 945.05,477.41"/>
    </edge>
    <edge id=":2166694704_5" function="internal">
        <lane id=":2166694704_5_0" index="0" speed="3.65" length="1.44" shape="938.94,481.69 940.36,481.42"/>
    </edge>
    <edge id=":2166694704_10" function="internal">
        <lane id=":2166694704_10_0" index="0" speed="7.48" length="12.74" shape="945.05,477.41 947.60,477.01 949.45,480.04 949.65,486.64"/>
    </edge>
    <edge id=":2166694704_11" function="internal">
        <lane id=":2166694704_11_0" index="0" speed="3.65" length="3.23" shape="940.36,481.42 941.21,481.71 941.48,482.56 941.19,483.97"/>
    </edge>
    <edge id=":2166694704_6" function="internal">
        <lane id=":2166694704_6_0" index="0" speed="5.46" length="9.99" shape="946.46,486.40 946.36,483.15 945.45,481.67 943.73,481.94 941.19,483.97"/>
    </edge>
    <edge id=":2166694704_7" function="internal">
        <lane id=":2166694704_7_0" index="0" speed="9.02" length="18.71" shape="946.46,486.40 947.48,480.26 949.48,476.01 952.46,473.65 956.42,473.17"/>
    </edge>
    <edge id=":2166694704_8" function="internal">
        <lane id=":2166694704_8_0" index="0" speed="3.65" length="4.67" shape="946.46,486.40 947.35,485.27 948.17,484.93 948.94,485.39 949.65,486.64"/>
    </edge>
    <edge id=":2166694709_0" function="internal">
        <lane id=":2166694709_0_0" index="0" speed="13.89" length="13.43" shape="1058.02,479.67 1056.66,482.91 1055.57,485.94 1054.82,489.05 1054.46,492.52"/>
    </edge>
    <edge id=":2166694709_1" function="internal">
        <lane id=":2166694709_1_0" index="0" speed="9.03" length="3.77" shape="1058.02,479.67 1056.16,482.69 1055.99,482.83"/>
    </edge>
    <edge id=":2166694709_2" function="internal">
        <lane id=":2166694709_2_0" index="0" speed="3.65" length="1.44" shape="1058.02,479.67 1056.81,480.45"/>
    </edge>
    <edge id=":2166694709_9" function="internal">
        <lane id=":2166694709_9_0" index="0" speed="9.03" length="10.38" shape="1055.99,482.83 1053.61,484.72 1050.37,485.76 1046.43,485.80"/>
    </edge>
    <edge id=":2166694709_10" function="internal">
        <lane id=":2166694709_10_0" index="0" speed="3.65" length="3.23" shape="1056.81,480.45 1055.91,480.51 1055.34,479.82 1055.08,478.41"/>
    </edge>
    <edge id=":2166694709_3" function="internal">
        <lane id=":2166694709_3_0" index="0" speed="7.76" length="10.24" shape="1046.56,482.60 1049.50,482.59 1051.90,481.89 1053.76,480.49 1055.08,478.41"/>
    </edge>
    <edge id=":2166694709_4" function="internal">
        <lane id=":2166694709_4_0" index="0" speed="8.22" length="14.26" shape="1046.56,482.60 1050.14,483.54 1052.65,485.51 1054.09,488.50 1054.46,492.52"/>
    </edge>
    <edge id=":2166694709_5" function="internal">
        <lane id=":2166694709_5_0" index="0" speed="3.65" length="4.68" shape="1046.56,482.60 1047.73,483.45 1048.10,484.26 1047.66,485.05 1046.43,485.80"/>
    </edge>
    <edge id=":2166694709_6" function="internal">
        <lane id=":2166694709_6_0" index="0" speed="6.60" length="8.84" shape="1051.28,492.00 1051.06,489.49 1050.17,487.62 1048.63,486.39 1046.43,485.80"/>
    </edge>
    <edge id=":2166694709_7" function="internal">
        <lane id=":2166694709_7_0" index="0" speed="13.89" length="14.20" shape="1051.28,492.00 1051.67,488.41 1052.51,485.05 1053.68,481.76 1055.08,478.41"/>
    </edge>
    <edge id=":2166694709_8" function="internal">
        <lane id=":2166694709_8_0" index="0" speed="3.66" length="1.45" shape="1051.28,492.00 1052.27,490.94"/>
    </edge>
    <edge id=":2166694709_11" function="internal">
        <lane id=":2166694709_11_0" index="0" speed="3.66" length="3.26" shape="1052.27,490.94 1053.13,490.67 1053.86,491.20 1054.46,492.52"/>
    </edge>
    <edge id=":2166694714_0" function="internal">
        <lane id=":2166694714_0_0" index="0" speed="13.89" length="14.40" shape="953.35,513.66 938.97,512.93"/>
    </edge>
    <edge id=":2166694714_1" function="internal">
        <lane id=":2166694714_1_0" index="0" speed="7.96" length="4.09" shape="953.35,513.66 949.49,512.90 949.36,512.81"/>
    </edge>
    <edge id=":2166694714_2" function="internal">
        <lane id=":2166694714_2_0" index="0" speed="3.65" length="1.44" shape="953.35,513.66 952.19,512.80"/>
    </edge>
    <edge id=":2166694714_9" function="internal">
        <lane id=":2166694714_9_0" index="0" speed="7.96" length="10.20" shape="949.36,512.81 946.84,511.09 945.37,508.23 945.11,504.31"/>
    </edge>
    <edge id=":2166694714_10" function="internal">
        <lane id=":2166694714_10_0" index="0" speed="3.65" length="3.23" shape="952.19,512.80 951.83,511.98 952.27,511.20 953.51,510.46"/>
    </edge>
    <edge id=":2166694714_3" function="internal">
        <lane id=":2166694714_3_0" index="0" speed="6.45" length="9.03" shape="948.30,504.55 948.47,507.03 949.39,508.84 951.07,509.98 953.51,510.46"/>
    </edge>
    <edge id=":2166694714_4" function="internal">
        <lane id=":2166694714_4_0" index="0" speed="8.08" length="14.23" shape="948.30,504.55 947.47,508.38 945.64,511.05 942.80,512.57 938.97,512.93"/>
    </edge>
    <edge id=":2166694714_5" function="internal">
        <lane id=":2166694714_5_0" index="0" speed="3.65" length="4.67" shape="948.30,504.55 947.41,505.69 946.59,506.03 945.82,505.57 945.11,504.31"/>
    </edge>
    <edge id=":2166694714_6" function="internal">
        <lane id=":2166694714_6_0" index="0" speed="6.60" length="9.16" shape="939.13,509.73 941.58,509.50 943.40,508.52 944.58,506.79 945.11,504.31"/>
    </edge>
    <edge id=":2166694714_7" function="internal">
        <lane id=":2166694714_7_0" index="0" speed="13.89" length="14.40" shape="939.13,509.73 953.51,510.46"/>
    </edge>
    <edge id=":2166694714_8" function="internal">
        <lane id=":2166694714_8_0" index="0" speed="3.65" length="1.44" shape="939.13,509.73 940.29,510.59"/>
    </edge>
    <edge id=":2166694714_11" function="internal">
        <lane id=":2166694714_11_0" index="0" speed="3.65" length="3.23" shape="940.29,510.59 940.64,511.41 940.20,512.19 938.97,512.93"/>
    </edge>
    <edge id=":2166694715_0" function="internal">
        <lane id=":2166694715_0_0" index="0" speed="3.65" length="4.67" shape="913.56,569.33 912.70,570.48 911.88,570.84 911.11,570.41 910.37,569.17"/>
    </edge>
    <edge id=":2166694720_0" function="internal">
        <lane id=":2166694720_0_0" index="0" speed="7.52" length="10.28" shape="1387.46,629.34 1385.14,630.09 1383.40,631.58 1382.25,633.82 1381.68,636.80"/>
    </edge>
    <edge id=":2166694720_1" function="internal">
        <lane id=":2166694720_1_0" index="0" speed="13.89" length="14.56" shape="1387.46,629.34 1373.04,631.38"/>
    </edge>
    <edge id=":2166694720_2" function="internal">
        <lane id=":2166694720_2_0" index="0" speed="3.65" length="1.44" shape="1387.46,629.34 1386.16,628.72"/>
    </edge>
    <edge id=":2166694720_9" function="internal">
        <lane id=":2166694720_9_0" index="0" speed="3.65" length="3.23" shape="1386.16,628.72 1385.65,627.99 1385.93,627.14 1387.00,626.17"/>
    </edge>
    <edge id=":2166694720_3" function="internal">
        <lane id=":2166694720_3_0" index="0" speed="13.89" length="14.55" shape="1372.60,628.21 1387.00,626.17"/>
    </edge>
    <edge id=":2166694720_4" function="internal">
        <lane id=":2166694720_4_0" index="0" speed="7.66" length="4.28" shape="1372.60,628.21 1376.88,628.23"/>
    </edge>
    <edge id=":2166694720_5" function="internal">
        <lane id=":2166694720_5_0" index="0" speed="3.65" length="1.44" shape="1372.60,628.21 1373.90,628.84"/>
    </edge>
    <edge id=":2166694720_10" function="internal">
        <lane id=":2166694720_10_0" index="0" speed="7.66" length="10.83" shape="1376.88,628.23 1379.82,629.67 1381.42,632.52 1381.68,636.80"/>
    </edge>
    <edge id=":2166694720_11" function="internal">
        <lane id=":2166694720_11_0" index="0" speed="3.65" length="3.23" shape="1373.90,628.84 1374.41,629.58 1374.12,630.42 1373.04,631.38"/>
    </edge>
    <edge id=":2166694720_6" function="internal">
        <lane id=":2166694720_6_0" index="0" speed="6.08" length="9.06" shape="1378.49,636.53 1378.34,633.97 1377.38,632.25 1375.61,631.39 1373.04,631.38"/>
    </edge>
    <edge id=":2166694720_7" function="internal">
        <lane id=":2166694720_7_0" index="0" speed="8.87" length="14.63" shape="1378.49,636.53 1379.31,632.42 1381.00,629.32 1383.57,627.24 1387.00,626.17"/>
    </edge>
    <edge id=":2166694720_8" function="internal">
        <lane id=":2166694720_8_0" index="0" speed="3.65" length="4.67" shape="1378.49,636.53 1379.39,635.40 1380.22,635.07 1380.98,635.53 1381.68,636.80"/>
    </edge>
    <edge id=":2166694724_0" function="internal">
        <lane id=":2166694724_0_0" index="0" speed="5.28" length="5.86" shape="1299.48,645.50 1299.44,644.19 1299.30,642.28 1298.99,640.58 1298.40,639.89"/>
    </edge>
    <edge id=":2166694724_1" function="internal">
        <lane id=":2166694724_1_0" index="0" speed="8.23" length="14.28" shape="1299.48,645.50 1299.88,641.56 1301.38,638.62 1303.96,636.69 1307.64,635.76"/>
    </edge>
    <edge id=":2166694724_2" function="internal">
        <lane id=":2166694724_2_0" index="0" speed="3.65" length="4.67" shape="1299.48,645.50 1300.24,644.28 1301.03,643.85 1301.84,644.23 1302.68,645.40"/>
    </edge>
    <edge id=":2166694724_3" function="internal">
        <lane id=":2166694724_3_0" index="0" speed="6.78" length="9.37" shape="1307.96,638.95 1305.58,639.55 1303.90,640.83 1302.94,642.78 1302.68,645.40"/>
    </edge>
    <edge id=":2166694724_4" function="internal">
        <lane id=":2166694724_4_0" index="0" speed="13.89" length="9.60" shape="1307.96,638.95 1298.40,639.89"/>
    </edge>
    <edge id=":2166694724_5" function="internal">
        <lane id=":2166694724_5_0" index="0" speed="3.65" length="1.44" shape="1307.96,638.95 1306.68,638.27"/>
    </edge>
    <edge id=":2166694724_9" function="internal">
        <lane id=":2166694724_9_0" index="0" speed="3.65" length="3.23" shape="1306.68,638.27 1306.20,637.51 1306.52,636.68 1307.64,635.76"/>
    </edge>
    <edge id=":2166694724_6" function="internal">
        <lane id=":2166694724_6_0" index="0" speed="13.89" length="9.58" shape="1298.11,636.70 1307.64,635.76"/>
    </edge>
    <edge id=":2166694724_7" function="internal">
        <lane id=":2166694724_7_0" index="0" speed="6.95" length="1.93" shape="1298.11,636.70 1300.00,637.09"/>
    </edge>
    <edge id=":2166694724_8" function="internal">
        <lane id=":2166694724_8_0" index="0" speed="3.65" length="1.44" shape="1298.11,636.70 1299.37,637.38"/>
    </edge>
    <edge id=":2166694724_10" function="internal">
        <lane id=":2166694724_10_0" index="0" speed="6.95" length="8.99" shape="1300.00,637.09 1301.39,638.67 1302.28,641.44 1302.68,645.40"/>
    </edge>
    <edge id=":2166694724_11" function="internal">
        <lane id=":2166694724_11_0" index="0" speed="3.65" length="3.23" shape="1299.37,637.38 1299.85,638.14 1299.52,638.98 1298.40,639.89"/>
    </edge>
    <edge id=":2166694728_0" function="internal">
        <lane id=":2166694728_0_0" index="0" speed="13.89" length="10.55" shape="1174.80,651.73 1164.43,653.63"/>
    </edge>
    <edge id=":2166694728_1" function="internal">
        <lane id=":2166694728_1_0" index="0" speed="6.92" length="2.63" shape="1174.80,651.73 1172.18,651.58"/>
    </edge>
    <edge id=":2166694728_2" function="internal">
        <lane id=":2166694728_2_0" index="0" speed="3.65" length="1.44" shape="1174.80,651.73 1173.48,651.16"/>
    </edge>
    <edge id=":2166694728_9" function="internal">
        <lane id=":2166694728_9_0" index="0" speed="6.92" length="9.90" shape="1172.18,651.58 1170.45,650.00 1169.59,647.00 1169.62,642.57"/>
    </edge>
    <edge id=":2166694728_10" function="internal">
        <lane id=":2166694728_10_0" index="0" speed="3.65" length="3.23" shape="1173.48,651.16 1172.94,650.44 1173.19,649.58 1174.23,648.58"/>
    </edge>
    <edge id=":2166694728_3" function="internal">
        <lane id=":2166694728_3_0" index="0" speed="5.19" length="6.49" shape="1172.81,642.86 1172.69,645.50 1172.88,647.33 1173.40,648.36 1174.23,648.58"/>
    </edge>
    <edge id=":2166694728_4" function="internal">
        <lane id=":2166694728_4_0" index="0" speed="9.10" length="14.77" shape="1172.81,642.86 1171.96,647.05 1170.28,650.25 1167.77,652.44 1164.43,653.63"/>
    </edge>
    <edge id=":2166694728_5" function="internal">
        <lane id=":2166694728_5_0" index="0" speed="3.65" length="4.67" shape="1172.81,642.86 1171.90,643.98 1171.07,644.31 1170.31,643.84 1169.62,642.57"/>
    </edge>
    <edge id=":2166694728_6" function="internal">
        <lane id=":2166694728_6_0" index="0" speed="7.78" length="10.58" shape="1163.85,650.48 1166.14,649.63 1167.86,648.03 1169.02,645.68 1169.62,642.57"/>
    </edge>
    <edge id=":2166694728_7" function="internal">
        <lane id=":2166694728_7_0" index="0" speed="13.89" length="10.55" shape="1163.85,650.48 1174.23,648.58"/>
    </edge>
    <edge id=":2166694728_8" function="internal">
        <lane id=":2166694728_8_0" index="0" speed="3.65" length="1.44" shape="1163.85,650.48 1165.18,651.05"/>
    </edge>
    <edge id=":2166694728_11" function="internal">
        <lane id=":2166694728_11_0" index="0" speed="3.65" length="3.23" shape="1165.18,651.05 1165.72,651.77 1165.47,652.62 1164.43,653.63"/>
    </edge>
    <edge id=":2166694752_0" function="internal">