<connections>
<connection from="8080225478to5414306406" to="5414306406to8080225478" />
<connection from="8080225478to5414306406" to="5414306406to5871442378" />
<connection from="8080225478to5414306406" to="5414306406to8096944325" />
<connection from="5871442378to5414306406" to="5414306406to8080225478" />
<connection from="5871442378to5414306406" to="5414306406to5871442378" />
<connection from="5871442378to5414306406" to="5414306406to8096944325" />
<connection from="8096944325to5414306406" to="5414306406to8080225478" />
<connection from="8096944325to5414306406" to="5414306406to5871442378" />
<connection from="8096944325to5414306406" to="5414306406to8096944325" />
<connection from="5871444998to5414306521" to="5414306521to5871444998" />
<connection from="5871444998to5414306521" to="5414306521to5871444989" />
<connection from="5871444998to5414306521" to="5414306521to8080225476" />
<connection from="5871444989to5414306521" to="5414306521to5871444998" />
<connection from="5871444989to5414306521" to="5414306521to5871444989" />
<connection from="5871444989to5414306521" to="5414306521to8080225476" />
<connection from="8080225476to5414306521" to="5414306521to5871444998" />
<connection from="8080225476to5414306521" to="5414306521to5871444989" />
<connection from="8080225476to5414306521" to="5414306521to8080225476" />
<connection from="8080225476to5414306522" to="5414306522to8080225476" />
<connection from="8080225476to5414306522" to="5414306522to5871444998" />
<connection from="8080225476to5414306522" to="5414306522to7746660931" />
<connection from="5871444998to5414306522" to="5414306522to8080225476" />
<connection from="5871444998to5414306522" to="5414306522to5871444998" />
<connection from="5871444998to5414306522" to="5414306522to7746660931" />
<connection from="7746660931to5414306522" to="5414306522to8080225476" />
<connection from="7746660931to5414306522" to="5414306522to5871444998" />
<connection from="7746660931to5414306522" to="5414306522to7746660931" />
<connection from="7746660931to5414306523" to="5414306523to7746660931" />
<connection from="7746660931to5414306523" to="5414306523to5871444994" />
<connection from="5871444994to5414306523" to="5414306523to7746660931" />
<connection from="5871444994to5414306523" to="5414306523to5871444994" />
<connection from="5871442360to5434699621" to="5434699621to5871442360" />
<connection from="5871442360to5434699621" to="5434699621to5871445019" />
<connection from="5871442360to5434699621" to="5434699621to5871442354" />
<connection from="5871445019to5434699621" to="5434699621to5871442360" />
<connection from="5871445019to5434699621" to="5434699621to5871445019" />
<connection from="5871445019to5434699621" to="5434699621to5871442354" />
<connection from="5871442354to5434699621" to="5434699621to5871442360" />
<connection from="5871442354to5434699621" to="5434699621to5871445019" />
<connection from="5871442354to5434699621" to="5434699621to5871442354" />
<connection from="8077954989to5871442320" to="5871442320to8077954989" />
<connection from="8077954989to5871442320" to="5871442320to5871442321" />
<connection from="5871442321to5871442320" to="5871442320to8077954989" />
<connection from="5871442321to5871442320" to="5871442320to5871442321" />
<connection from="5871442320to5871442321" to="5871442321to5871442320" />
<connection from="5871442320to5871442321" to="5871442321to5871445023" />
<connection from="5871442320to5871442321" to="5871442321to5871445020" />
<connection from="5871445023to5871442321" to="5871442321to5871442320" />
<connection from="5871445023to5871442321" to="5871442321to5871445023" />
<connection from="5871445023to5871442321" to="5871442321to5871445020" />
<connection from="5871445020to5871442321" to="5871442321to5871442320" />
<connection from="5871445020to5871442321" to="5871442321to5871445023" />
<connection from="5871445020to5871442321" to="5871442321to5871445020" />
<connection from="5871445370to5871442326" to="5871442326to5871445370" />
<connection from="5871445370to5871442326" to="5871442326to8077954983" />
<connection from="5871445370to5871442326" to="5871442326to5871442338" />
<connection from="8077954983to5871442326" to="5871442326to5871445370" />
<connection from="8077954983to5871442326" to="5871442326to8077954983" />
<connection from="8077954983to5871442326" to="5871442326to5871442338" />
<connection from="5871442338to5871442326" to="5871442326to5871445370" />
<connection from="5871442338to5871442326" to="5871442326to8077954983" />
<connection from="5871442338to5871442326" to="5871442326to5871442338" />
<connection from="5871442326to5871442338" to="5871442338to5871442326" />
<connection from="5871442326to5871442338" to="5871442338to8077954882" />
<connection from="5871442326to5871442338" to="5871442338to8080003643" />
<connection from="8077954882to5871442338" to="5871442338to5871442326" />
<connection from="8077954882to5871442338" to="5871442338to8077954882" />
<connection from="8077954882to5871442338" to="5871442338to8080003643" />
<connection from="8080003643to5871442338" to="5871442338to5871442326" />
<connection from="8080003643to5871442338" to="5871442338to8077954882" />
<connection from="8080003643to5871442338" to="5871442338to8080003643" />
<connection from="5871442343to5871442340" to="5871442340to5871442343" />
<connection from="5871442343to5871442340" to="5871442340to8077954882" />
<connection from="5871442343to5871442340" to="5871442340to8077954872" />
<connection from="8077954882to5871442340" to="5871442340to5871442343" />
<connection from="8077954882to5871442340" to="5871442340to8077954882" />
<connection from="8077954882to5871442340" to="5871442340to8077954872" />
<connection from="8077954872to5871442340" to="5871442340to5871442343" />
<connection from="8077954872to5871442340" to="5871442340to8077954882" />
<connection from="8077954872to5871442340" to="5871442340to8077954872" />
<connection from="5871442340to5871442343" to="5871442343to5871442340" />
<connection from="5871442340to5871442343" to="5871442343to8077954913" />
<connection from="5871442340to5871442343" to="5871442343to5871442347" />
<connection from="8077954913to5871442343" to="5871442343to5871442340" />
<connection from="8077954913to5871442343" to="5871442343to8077954913" />
<connection from="8077954913to5871442343" to="5871442343to5871442347" />
<connection from="5871442347to5871442343" to="5871442343to5871442340" />
<connection from="5871442347to5871442343" to="5871442343to8077954913" />
<connection from="5871442347to5871442343" to="5871442343to5871442347" />
<connection from="5871442343to5871442347" to="5871442347to5871442343" />
<connection from="5871442343to5871442347" to="5871442347to5871442348" />
<connection from="5871442343to5871442347" to="5871442347to8077954927" />
<connection from="5871442348to5871442347" to="5871442347to5871442343" />
<connection from="5871442348to5871442347" to="5871442347to5871442348" />
<connection from="5871442348to5871442347" to="5871442347to8077954927" />
<connection from="8077954927to5871442347" to="5871442347to5871442343" />
<connection from="8077954927to5871442347" to="5871442347to5871442348" />
<connection from="8077954927to5871442347" to="5871442347to8077954927" />
<connection from="5871442347to5871442348" to="5871442348to5871442347" />
<connection from="5871442347to5871442348" to="5871442348to5871442350" />
<connection from="5871442347to5871442348" to="5871442348to8077954927" />
<connection from="5871442350to5871442348" to="5871442348to5871442347" />
<connection from="5871442350to5871442348" to="5871442348to5871442350" />
<connection from="5871442350to5871442348" to="5871442348to8077954927" />
<connection from="8077954927to5871442348" to="5871442348to5871442347" />
<connection from="8077954927to5871442348" to="5871442348to5871442350" />
<connection from="8077954927to5871442348" to="5871442348to8077954927" />
<connection from="5871442348to5871442350" to="5871442350to5871442348" />
<connection from="5871442348to5871442350" to="5871442350to8080214634" />
<connection from="5871442348to5871442350" to="5871442350to5871442351" />
<connection from="8080214634to5871442350" to="5871442350to5871442348" />
<connection from="8080214634to5871442350" to="5871442350to8080214634" />
<connection from="8080214634to5871442350" to="5871442350to5871442351" />
<connection from="5871442351to5871442350" to="5871442350to5871442348" />
<connection from="5871442351to5871442350" to="5871442350to8080214634" />
<connection from="5871442351to5871442350" to="5871442350to5871442351" />
<connection from="5871442350to5871442351" to="5871442351to5871442350" />
<connection from="5871442350to5871442351" to="5871442351to8077954963" />
<connection from="5871442350to5871442351" to="5871442351to8080214634" />
<connection from="8077954963to5871442351" to="5871442351to5871442350" />
<connection from="8077954963to5871442351" to="5871442351to8077954963" />
<connection from="8077954963to5871442351" to="5871442351to8080214634" />
<connection from="8080214634to5871442351" to="5871442351to5871442350" />
<connection from="8080214634to5871442351" to="5871442351to8077954963" />
<connection from="8080214634to5871442351" to="5871442351to8080214634" />
<connection from="8077954927to5871442352" to="5871442352to8077954927" />
<connection from="8077954927to5871442352" to="5871442352to5871442356" />
<connection from="8077954927to5871442352" to="5871442352to8077954963" />
<connection from="5871442356to5871442352" to="5871442352to8077954927" />
<connection from="5871442356to5871442352" to="5871442352to5871442356" />
<connection from="5871442356to5871442352" to="5871442352to8077954963" />
<connection from="8077954963to5871442352" to="5871442352to8077954927" />
<connection from="8077954963to5871442352" to="5871442352to5871442356" />
<connection from="8077954963to5871442352" to="5871442352to8077954963" />
<connection from="5434699621to5871442354" to="5871442354to5434699621" />
<connection from="5434699621to5871442354" to="5871442354to5871442360" />
<connection from="5434699621to5871442354" to="5871442354to8077954953" />
<connection from="5871442360to5871442354" to="5871442354to5434699621" />
<connection from="5871442360to5871442354" to="5871442354to5871442360" />
<connection from="5871442360to5871442354" to="5871442354to8077954953" />
<connection from="8077954953to5871442354" to="5871442354to5434699621" />
<connection from="8077954953to5871442354" to="5871442354to5871442360" />
<connection from="8077954953to5871442354" to="5871442354to8077954953" />
<connection from="5871442352to5871442356" to="5871442356to5871442352" />
<connection from="5871442352to5871442356" to="5871442356to8077954953" />
<connection from="5871442352to5871442356" to="5871442356to5871442358" />
<connection from="8077954953to5871442356" to="5871442356to5871442352" />
<connection from="8077954953to5871442356" to="5871442356to8077954953" />
<connection from="8077954953to5871442356" to="5871442356to5871442358" />
<connection from="5871442358to5871442356" to="5871442356to5871442352" />
<connection from="5871442358to5871442356" to="5871442356to8077954953" />
<connection from="5871442358to5871442356" to="5871442356to5871442358" />
<connection from="5871442356to5871442358" to="5871442358to5871442356" />
<connection from="5871442356to5871442358" to="5871442358to5871442359" />
<connection from="5871442356to5871442358" to="5871442358to8077954961" />
<connection from="5871442359to5871442358" to="5871442358to5871442356" />
<connection from="5871442359to5871442358" to="5871442358to5871442359" />
<connection from="5871442359to5871442358" to="5871442358to8077954961" />
<connection from="8077954961to5871442358" to="5871442358to5871442356" />
<connection from="8077954961to5871442358" to="5871442358to5871442359" />
<connection from="8077954961to5871442358" to="5871442358to8077954961" />
<connection from="8077954961to5871442359" to="5871442359to8077954961" />
<connection from="8077954961to5871442359" to="5871442359to5871442358" />
<connection from="8077954961to5871442359" to="5871442359to5871445014" />
<connection from="5871442358to5871442359" to="5871442359to8077954961" />
<connection from="5871442358to5871442359" to="5871442359to5871442358" />
<connection from="5871442358to5871442359" to="5871442359to5871445014" />
<connection from="5871445014to5871442359" to="5871442359to8077954961" />
<connection from="5871445014to5871442359" to="5871442359to5871442358" />
<connection from="5871445014to5871442359" to="5871442359to5871445014" />
<connection from="5434699621to5871442360" to="5871442360to5434699621" />
<connection from="5434699621to5871442360" to="5871442360to5871442354" />
<connection from="5434699621to5871442360" to="5871442360to5871445014" />
<connection from="5871442354to5871442360" to="5871442360to5434699621" />
<connection from="5871442354to5871442360" to="5871442360to5871442354" />
<connection from="5871442354to5871442360" to="5871442360to5871445014" />
<connection from="5871445014to5871442360" to="5871442360to5434699621" />
<connection from="5871445014to5871442360" to="5871442360to5871442354" />
<connection from="5871445014to5871442360" to="5871442360to5871445014" />
<connection from="5871442380to5871442377" to="5871442377to5871442380" />
<connection from="5871442380to5871442377" to="5871442377to8080225509" />
<connection from="5871442380to5871442377" to="5871442377to8080225479" />
<connection from="8080225509to5871442377" to="5871442377to5871442380" />
<connection from="8080225509to5871442377" to="5871442377to8080225509" />
<connection from="8080225509to5871442377" to="5871442377to8080225479" />
<connection from="8080225479to5871442377" to="5871442377to5871442380" />
<connection from="8080225479to5871442377" to="5871442377to8080225509" />
<connection from="8080225479to5871442377" to="5871442377to8080225479" />
<connection from="5414306406to5871442378" to="5871442378to5414306406" />
<connection from="5414306406to5871442378" to="5871442378to5871442383" />
<connection from="5871442383to5871442378" to="5871442378to5414306406" />
<connection from="5871442383to5871442378" to="5871442378to5871442383" />
<connection from="5871442380to5871442379" to="5871442379to5871442380" />
<connection from="5871442377to5871442380" to="5871442380to5871442377" />
<connection from="5871442377to5871442380" to="5871442380to5871442379" />
<connection from="5871442377to5871442380" to="5871442380to8080225508" />
<connection from="5871442379to5871442380" to="5871442380to5871442377" />
<connection from="5871442379to5871442380" to="5871442380to5871442379" />
<connection from="5871442379to5871442380" to="5871442380to8080225508" />
<connection from="8080225508to5871442380" to="5871442380to5871442377" />
<connection from="8080225508to5871442380" to="5871442380to5871442379" />
<connection from="8080225508to5871442380" to="5871442380to8080225508" />
<connection from="5871442383to5871442381" to="5871442381to5871442383" />
<connection from="5871442383to5871442382" to="5871442382to5871442383" />
<connection from="5871442378to5871442383" to="5871442383to5871442378" />
<connection from="5871442378to5871442383" to="5871442383to5871442381" />
<connection from="5871442378to5871442383" to="5871442383to5871442382" />
<connection from="5871442378to5871442383" to="5871442383to8080225508" />
<connection from="5871442381to5871442383" to="5871442383to5871442378" />
<connection from="5871442381to5871442383" to="5871442383to5871442381" />
<connection from="5871442381to5871442383" to="5871442383to5871442382" />
<connection from="5871442381to5871442383" to="5871442383to8080225508" />
<connection from="5871442382to5871442383" to="5871442383to5871442378" />
<connection from="5871442382to5871442383" to="5871442383to5871442381" />
<connection from="5871442382to5871442383" to="5871442383to5871442382" />
<connection from="5871442382to5871442383" to="5871442383to8080225508" />
<connection from="8080225508to5871442383" to="5871442383to5871442378" />
<connection from="8080225508to5871442383" to="5871442383to5871442381" />
<connection from="8080225508to5871442383" to="5871442383to5871442382" />
<connection from="8080225508to5871442383" to="5871442383to8080225508" />
<connection from="8080225478to5871444985" to="5871444985to8080225478" />
<connection from="5414306521to5871444989" to="5871444989to5414306521" />
<connection from="5414306521to5871444989" to="5871444989to8096514758" />
<connection from="5414306521to5871444989" to="5871444989to5871444993" />
<connection from="8096514758to5871444989" to="5871444989to5414306521" />
<connection from="8096514758to5871444989" to="5871444989to8096514758" />
<connection from="8096514758to5871444989" to="5871444989to5871444993" />
<connection from="5871444993to5871444989" to="5871444989to5414306521" />
<connection from="5871444993to5871444989" to="5871444989to8096514758" />
<connection from="5871444993to5871444989" to="5871444989to5871444993" />
<connection from="5871444989to5871444993" to="5871444993to5871444989" />
<connection from="7746660931to5871444994" to="5871444994to7746660931" />
<connection from="7746660931to5871444994" to="5871444994to5414306523" />
<connection from="7746660931to5871444994" to="5871444994to7746660925" />
<connection from="5414306523to5871444994" to="5871444994to7746660931" />
<connection from="5414306523to5871444994" to="5871444994to5414306523" />
<connection from="5414306523to5871444994" to="5871444994to7746660925" />
<connection from="7746660925to5871444994" to="5871444994to7746660931" />
<connection from="7746660925to5871444994" to="5871444994to5414306523" />
<connection from="7746660925to5871444994" to="5871444994to7746660925" />
<connection from="7746660925to5871444995" to="5871444995to7746660925" />
<connection from="7746660925to5871444995" to="5871444995to5871445019" />
<connection from="7746660925to5871444995" to="5871444995to5871444996" />
<connection from="5871445019to5871444995" to="5871444995to7746660925" />
<connection from="5871445019to5871444995" to="5871444995to5871445019" />
<connection from="5871445019to5871444995" to="5871444995to5871444996" />
<connection from="5871444996to5871444995" to="5871444995to7746660925" />
<connection from="5871444996to5871444995" to="5871444995to5871445019" />
<connection from="5871444996to5871444995" to="5871444995to5871444996" />
<connection from="5871444995to5871444996" to="5871444996to5871444995" />
<connection from="5871444995to5871444996" to="5871444996to5871444997" />
<connection from="5871444995to5871444996" to="5871444996to5871445007" />
<connection from="5871444997to5871444996" to="5871444996to5871444995" />
<connection from="5871444997to5871444996" to="5871444996to5871444997" />
<connection from="5871444997to5871444996" to="5871444996to5871445007" />
<connection from="5871445007to5871444996" to="5871444996to5871444995" />
<connection from="5871445007to5871444996" to="5871444996to5871444997" />
<connection from="5871445007to5871444996" to="5871444996to5871445007" />
<connection from="5871445000to5871444997" to="5871444997to5871445000" />
<connection from="5871445000to5871444997" to="5871444997to5871444996" />
<connection from="5871445000to5871444997" to="5871444997to5871444998" />
<connection from="5871444996to5871444997" to="5871444997to5871445000" />
<connection from="5871444996to5871444997" to="5871444997to5871444996" />
<connection from="5871444996to5871444997" to="5871444997to5871444998" />
<connection from="5871444998to5871444997" to="5871444997to5871445000" />
<connection from="5871444998to5871444997" to="5871444997to5871444996" />
<connection from="5871444998to5871444997" to="5871444997to5871444998" />
<connection from="5414306521to5871444998" to="5871444998to5414306521" />
<connection from="5414306521to5871444998" to="5871444998to5414306522" />
<connection from="5414306521to5871444998" to="5871444998to5871444997" />
<connection from="5414306522to5871444998" to="5871444998to5414306521" />
<connection from="5414306522to5871444998" to="5871444998to5414306522" />
<connection from="5414306522to5871444998" to="5871444998to5871444997" />
<connection from="5871444997to5871444998" to="5871444998to5414306521" />
<connection from="5871444997to5871444998" to="5871444998to5414306522" />
<connection from="5871444997to5871444998" to="5871444998to5871444997" />
<connection from="5871444997to5871445000" to="5871445000to5871444997" />
<connection from="5871444997to5871445000" to="5871445000to5871445015" />
<connection from="5871444997to5871445000" to="5871445000to5871445007" />
<connection from="5871445015to5871445000" to="5871445000to5871444997" />
<connection from="5871445015to5871445000" to="5871445000to5871445015" />
<connection from="5871445015to5871445000" to="5871445000to5871445007" />
<connection from="5871445007to5871445000" to="5871445000to5871444997" />
<connection from="5871445007to5871445000" to="5871445000to5871445015" />
<connection from="5871445007to5871445000" to="5871445000to5871445007" />
<connection from="5871445000to5871445007" to="5871445007to5871445000" />
<connection from="5871445000to5871445007" to="5871445007to5871444996" />
<connection from="5871445000to5871445007" to="5871445007to5871445012" />
<connection from="5871444996to5871445007" to="5871445007to5871445000" />
<connection from="5871444996to5871445007" to="5871445007to5871444996" />
<connection from="5871444996to5871445007" to="5871445007to5871445012" />
<connection from="5871445012to5871445007" to="5871445007to5871445000" />
<connection from="5871445012to5871445007" to="5871445007to5871444996" />
<connection from="5871445012to5871445007" to="5871445007to5871445012" />
<connection from="5871445007to5871445012" to="5871445012to5871445007" />
<connection from="5871445007to5871445012" to="5871445012to5871445014" />
<connection from="5871445007to5871445012" to="5871445012to5871445015" />
<connection from="5871445014to5871445012" to="5871445012to5871445007" />
<connection from="5871445014to5871445012" to="5871445012to5871445014" />
<connection from="5871445014to5871445012" to="5871445012to5871445015" />
<connection from="5871445015to5871445012" to="5871445012to5871445007" />
<connection from="5871445015to5871445012" to="5871445012to5871445014" />
<connection from="5871445015to5871445012" to="5871445012to5871445015" />
<connection from="5871442360to5871445014" to="5871445014to5871442360" />
<connection from="5871442360to5871445014" to="5871445014to5871445012" />
<connection from="5871442360to5871445014" to="5871445014to5871442359" />
<connection from="5871445012to5871445014" to="5871445014to5871442360" />
<connection from="5871445012to5871445014" to="5871445014to5871445012" />
<connection from="5871445012to5871445014" to="5871445014to5871442359" />
<connection from="5871442359to5871445014" to="5871445014to5871442360" />
<connection from="5871442359to5871445014" to="5871445014to5871445012" />
<connection from="5871442359to5871445014" to="5871445014to5871442359" />
<connection from="5871445000to5871445015" to="5871445015to5871445000" />
<connection from="5871445000to5871445015" to="5871445015to5871445012" />
<connection from="5871445000to5871445015" to="5871445015to8078035961" />
<connection from="5871445012to5871445015" to="5871445015to5871445000" />
<connection from="5871445012to5871445015" to="5871445015to5871445012" />
<connection from="5871445012to5871445015" to="5871445015to8078035961" />
<connection from="8078035961to5871445015" to="5871445015to5871445000" />
<connection from="8078035961to5871445015" to="5871445015to5871445012" />
<connection from="8078035961to5871445015" to="5871445015to8078035961" />
<connection from="5434699621to5871445019" to="5871445019to5434699621" />
<connection from="5434699621to5871445019" to="5871445019to5871444995" />
<connection from="5434699621to5871445019" to="5871445019to7746660925" />
<connection from="5871444995to5871445019" to="5871445019to5434699621" />
<connection from="5871444995to5871445019" to="5871445019to5871444995" />
<connection from="5871444995to5871445019" to="5871445019to7746660925" />
<connection from="7746660925to5871445019" to="5871445019to5434699621" />
<connection from="7746660925to5871445019" to="5871445019to5871444995" />
<connection from="7746660925to5871445019" to="5871445019to7746660925" />
<connection from="5871442321to5871445020" to="5871445020to5871442321" />
<connection from="5871442321to5871445020" to="5871445020to8077954983" />
<connection from="5871442321to5871445020" to="5871445020to8080214634" />
<connection from="8077954983to5871445020" to="5871445020to5871442321" />
<connection from="8077954983to5871445020" to="5871445020to8077954983" />
<connection from="8077954983to5871445020" to="5871445020to8080214634" />
<connection from="8080214634to5871445020" to="5871445020to5871442321" />
<connection from="8080214634to5871445020" to="5871445020to8077954983" />
<connection from="8080214634to5871445020" to="5871445020to8080214634" />
<connection from="5871442321to5871445023" to="5871445023to5871442321" />
<connection from="5871442321to5871445023" to="5871445023to5871445024" />
<connection from="5871442321to5871445023" to="5871445023to8077954983" />
<connection from="5871445024to5871445023" to="5871445023to5871442321" />
<connection from="5871445024to5871445023" to="5871445023to5871445024" />
<connection from="5871445024to5871445023" to="5871445023to8077954983" />
<connection from="8077954983to5871445023" to="5871445023to5871442321" />
<connection from="8077954983to5871445023" to="5871445023to5871445024" />
<connection from="8077954983to5871445023" to="5871445023to8077954983" />
<connection from="5871445023to5871445024" to="5871445024to5871445023" />
<connection from="5871445371to5871445368" to="5871445368to5871445371" />
<connection from="5871442326to5871445370" to="5871445370to5871442326" />
<connection from="5871442326to5871445370" to="5871445370to5871445374" />
<connection from="5871442326to5871445370" to="5871445370to8077954989" />
<connection from="5871445374to5871445370" to="5871445370to5871442326" />
<connection from="5871445374to5871445370" to="5871445370to5871445374" />
<connection from="5871445374to5871445370" to="5871445370to8077954989" />
<connection from="8077954989to5871445370" to="5871445370to5871442326" />
<connection from="8077954989to5871445370" to="5871445370to5871445374" />
<connection from="8077954989to5871445370" to="5871445370to8077954989" />
<connection from="5871445368to5871445371" to="5871445371to5871445368" />
<connection from="5871445368to5871445371" to="5871445371to8077954989" />
<connection from="5871445368to5871445371" to="5871445371to5871445375" />
<connection from="8077954989to5871445371" to="5871445371to5871445368" />
<connection from="8077954989to5871445371" to="5871445371to8077954989" />
<connection from="8077954989to5871445371" to="5871445371to5871445375" />
<connection from="5871445375to5871445371" to="5871445371to5871445368" />
<connection from="5871445375to5871445371" to="5871445371to8077954989" />
<connection from="5871445375to5871445371" to="5871445371to5871445375" />
<connection from="5871445370to5871445374" to="5871445374to5871445370" />
<connection from="5871445371to5871445375" to="5871445375to5871445371" />
<connection from="5871444995to7746660925" to="7746660925to5871444995" />
<connection from="5871444995to7746660925" to="7746660925to5871445019" />
<connection from="5871444995to7746660925" to="7746660925to5871444994" />
<connection from="5871445019to7746660925" to="7746660925to5871444995" />
<connection from="5871445019to7746660925" to="7746660925to5871445019" />
<connection from="5871445019to7746660925" to="7746660925to5871444994" />
<connection from="5871444994to7746660925" to="7746660925to5871444995" />
<connection from="5871444994to7746660925" to="7746660925to5871445019" />
<connection from="5871444994to7746660925" to="7746660925to5871444994" />
<connection from="5414306523to7746660931" to="7746660931to5414306523" />
<connection from="5414306523to7746660931" to="7746660931to5871444994" />
<connection from="5414306523to7746660931" to="7746660931to5414306522" />
<connection from="5871444994to7746660931" to="7746660931to5414306523" />
<connection from="5871444994to7746660931" to="7746660931to5871444994" />
<connection from="5871444994to7746660931" to="7746660931to5414306522" />
<connection from="5414306522to7746660931" to="7746660931to5414306523" />
<connection from="5414306522to7746660931" to="7746660931to5871444994" />
<connection from="5414306522to7746660931" to="7746660931to5414306522" />
<connection from="8077954872to8077954868" to="8077954868to8077954872" />
<connection from="5871442340to8077954872" to="8077954872to5871442340" />
<connection from="5871442340to8077954872" to="8077954872to8077954868" />
<connection from="5871442340to8077954872" to="8077954872to8080003643" />
<connection from="8077954868to8077954872" to="8077954872to5871442340" />
<connection from="8077954868to8077954872" to="8077954872to8077954868" />
<connection from="8077954868to8077954872" to="8077954872to8080003643" />
<connection from="8080003643to8077954872" to="8077954872to5871442340" />
<connection from="8080003643to8077954872" to="8077954872to8077954868" />
<connection from="8080003643to8077954872" to="8077954872to8080003643" />
<connection from="5871442338to8077954882" to="8077954882to5871442338" />
<connection from="5871442338to8077954882" to="8077954882to5871442340" />
<connection from="5871442338to8077954882" to="8077954882to8077954897" />
<connection from="5871442340to8077954882" to="8077954882to5871442338" />
<connection from="5871442340to8077954882" to="8077954882to5871442340" />
<connection from="5871442340to8077954882" to="8077954882to8077954897" />
<connection from="8077954897to8077954882" to="8077954882to5871442338" />
<connection from="8077954897to8077954882" to="8077954882to5871442340" />
<connection from="8077954897to8077954882" to="8077954882to8077954897" />
<connection from="8077954882to8077954897" to="8077954897to8077954882" />
<connection from="5871442343to8077954913" to="8077954913to5871442343" />
<connection from="5871442352to8077954927" to="8077954927to5871442352" />