<nodes>
<node id="245674992" x="-176.23580568516627" y="170.56528490642086" />
<node id="667357309" x="333.7912134086946" y="-731.6307954583317" />
<node id="667357310" x="326.227156842011" y="-715.518969098106" />
<node id="667357311" x="392.54329942539334" y="-697.5090228524059" />
<node id="667357317" x="258.4035797419492" y="-471.75037284288555" />
<node id="667357318" x="159.98180121765472" y="-440.2044087648392" />
<node id="667357325" x="337.1058348065126" y="-352.25584829505533" />
<node id="667357326" x="148.41449483053293" y="-197.9258769354783" />
<node id="667357348" x="-157.05845170945395" y="465.63531921617687" />
<node id="667357352" x="407.1894985525287" y="13.545342660043389" />
<node id="667357359" x="-109.32945214386564" y="545.2947244630195" />
<node id="667357361" x="-144.3125499956077" y="464.92926449421793" />
<node id="667357367" x="346.5848363855621" y="351.4310747659765" />
<node id="667357368" x="441.0196910124505" y="-489.81714344909415" />
<node id="667357382" x="446.64124688052107" y="-352.8423874611035" />
<node id="667357383" x="719.6779418273363" y="-352.24242755491287" />
<node id="667357385" x="518.5510475974297" y="-352.7916480465792" />
<node id="667357387" x="612.9814293347299" y="-353.6511272843927" />
<node id="667357392" x="702.8932264734758" y="-81.77931097801775" />
<node id="667357401" x="764.6539022716461" y="-76.6907594660297" />
<node id="667357403" x="720.0067304044496" y="64.19311279477552" />
<node id="667357405" x="659.4388136214111" y="60.253141741734" />
<node id="667357407" x="611.2338082621573" y="31.397341136820614" />
<node id="667357409" x="660.7619349553715" y="182.79650471173227" />
<node id="667357412" x="625.1135516278446" y="253.88459725724533" />
<node id="667357415" x="743.1912274302449" y="180.92885362170637" />
<node id="667357416" x="730.6926786096301" y="212.1354575441219" />
<node id="667357419" x="623.9514991473407" y="393.91862503578886" />
<node id="667357421" x="360.5955794036854" y="605.7720110411756" />
<node id="668478124" x="-191.00704964774195" y="401.4010221916251" />
<node id="668612331" x="322.2941449980717" y="546.9700730168261" />
<node id="668612391" x="258.26746380282566" y="709.7998322295025" />
<node id="668620092" x="346.74124986259267" y="189.90637866733596" />
<node id="668660548" x="378.8460343485931" y="-848.903260007035" />
<node id="668660552" x="438.5069942031987" y="-821.5462456778623" />
<node id="668660560" x="694.1041044362937" y="-540.5651916507632" />
<node id="668672574" x="-208.49309990060283" y="184.42613167036325" />
<node id="668672699" x="-150.6462984654354" y="382.32782641332597" />
<node id="668672700" x="157.98457836423768" y="33.33806408010423" />
<node id="668672704" x="273.12702174903825" y="365.1737489863299" />
<node id="668685375" x="584.049266838585" y="-479.26473309937865" />
<node id="668685380" x="717.8434349944" y="-301.2659680265933" />
<node id="668699188" x="-320.2402154749725" y="-865.6336363083683" />
<node id="668699193" x="-244.86382373329252" y="-887.4396145516075" />
<node id="668699199" x="-338.63970971107483" y="-732.1800668677315" />
<node id="668699237" x="118.71850514394464" y="-815.6611000727862" />
<node id="668699242" x="-94.26643598638475" y="-871.8671562173404" />
<node id="668699249" x="335.50777165888576" y="-474.7628670814447" />
<node id="1990860599" x="442.72592273377813" y="556.051863880828" />
<node id="1990860600" x="484.2367872638861" y="587.5225055911578" />
<node id="2055461156" x="391.69491464138264" y="105.86277740867808" />
<node id="2081722939" x="-669.0053350318922" y="324.82385361148044" />
<node id="3215340463" x="325.47517497476656" y="-156.56916177412495" />
<node id="3215340464" x="414.7760303639807" y="-150.66983361635357" />
<node id="4348259294" x="-237.48948048602324" y="293.1712613007985" />
<node id="4348259295" x="-181.65455323492642" y="276.2270252513699" />
<node id="4348259297" x="-192.87576183711644" y="526.695903680753" />
<node id="4348259298" x="-139.47143003414385" y="524.7948903101496" />
<node id="4348259319" x="-630.0495611028164" y="314.97862876206636" />
<node id="4348259324" x="-529.3676774714258" y="290.6752862120047" />
<node id="4348259325" x="540.6995943725342" y="542.0839173961431" />
<node id="4348259327" x="511.85956548474496" y="387.1166467075236" />
<node id="4348259328" x="500.7696810810594" y="364.3181461468339" />
<node id="4348259329" x="373.8018598417402" y="483.1436136504635" />
<node id="4348259330" x="477.8923581971321" y="450.8441661489196" />
<node id="4348259331" x="509.2341737470706" y="452.88418855844066" />
<node id="4348259332" x="559.9409433591645" y="468.33447193866596" />
<node id="4348259333" x="591.0922433498781" y="496.77324979100376" />
<node id="4348259334" x="573.9588952332851" y="441.04024517163634" />
<node id="4348259335" x="621.2617869811365" y="441.96013434045017" />
<node id="4348259340" x="697.2199211209081" y="348.3800181518309" />
<node id="4348259341" x="669.9077204588102" y="433.7184319780208" />
<node id="4348265098" x="274.62588729325216" y="651.1869887192734" />
<node id="4348265099" x="300.96593616344035" y="559.525968329981" />
<node id="4348265101" x="237.28519969945773" y="526.5598731716163" />
<node id="4348265105" x="151.17739899968728" y="570.1169144944288" />
<node id="4348265107" x="162.13316635112278" y="514.690878551919" />
<node id="4369058864" x="491.51599639479537" y="186.61844662204385" />
<node id="4642960968" x="107.31035855715163" y="277.14677005726844" />
<node id="5077600694" x="285.8778735055821" y="-26.639296798035502" />
<node id="5280437313" x="-392.9065014056978" y="250.47606758587062" />
<node id="5280437314" x="-421.20063595555257" y="260.4477679794654" />
<node id="5280438428" x="-515.509733807994" y="332.7171445405111" />
<node id="5366445082" x="263.27679861558136" y="311.36915333755314" />
<node id="5366445083" x="220.35640433832305" y="192.76553462073207" />
<node id="5366445085" x="135.34986144583672" y="358.62526504835114" />
<node id="5366445091" x="45.916528808593284" y="406.6292371796444" />
<node id="5366445092" x="41.60870355111547" y="364.0411682170816" />
<node id="5366445093" x="41.4114284113748" y="354.5766836060211" />
<node id="5366445105" x="432.61394158616895" y="-352.76372295524925" />
<node id="5584937649" x="195.2136254790239" y="378.56025371467695" />
<node id="5584937650" x="196.2160576172173" y="360.2789574698545" />
<node id="5879215623" x="724.6750054237782" y="-457.566046115011" />
<node id="5879215625" x="720.2451430137735" y="-470.76681378716603" />
<node id="5879215634" x="672.2166305389255" y="-482.0532993194647" />
<node id="5879215641" x="512.0305746248341" y="-697.7042732867412" />
<node id="5879215642" x="378.55763357738033" y="-496.2250836142339" />
<node id="5879215643" x="335.2703027020907" y="-492.90753438463435" />
<node id="5879215644" x="475.1655551692238" y="-733.8588408823125" />
<node id="5879215645" x="418.55760244396515" y="-769.1025892850012" />
<node id="5879215646" x="430.3809436876327" y="-764.2831488195807" />
<node id="5879215650" x="409.00650827528443" y="-743.9874903815798" />
<node id="5882320075" x="515.8499388827477" y="270.7767295585945" />
<node id="6435688923" x="101.80829243990593" y="-908.0569693441503" />
<node id="6435688924" x="97.67704404896358" y="-821.2671629539691" />
<node id="6495983054" x="281.6341279097833" y="-584.3006937298924" />
<node id="6495983060" x="189.68238902231678" y="-593.4453788585961" />
<node id="6568909593" x="287.18684374395525" y="-268.8394912965596" />
<node id="6568909594" x="335.9170037024305" y="-268.41326914541423" />
<node id="6568909595" x="322.9510313257342" y="-114.0989036927931" />
<node id="6568909609" x="220.48192179994658" y="-443.87175332941115" />
<node id="6571330021" x="-253.3506442810176" y="479.4429306779057" />
<node id="6571330022" x="-279.50195140379947" y="370.3388785482384" />
<node id="6571330023" x="-330.2654374348349" y="228.0355212567374" />
<node id="6573701501" x="130.76213783805724" y="630.0184592674486" />
<node id="6573701505" x="63.715949884965084" y="617.4883901914582" />
<node id="6573701524" x="304.12694348045625" y="490.20877176942304" />
<node id="6573854574" x="285.8428742662072" y="-250.94168162345886" />
<node id="6576461331" x="640.6331594279036" y="-84.61403606273234" />
<node id="6583550560" x="-3.219185259542428" y="-0.3782297447323799" />
<node id="6583550562" x="68.33864496834576" y="70.73697962844744" />
<node id="6627410440" x="232.08451925829286" y="-753.8797599487007" />
<node id="6627410442" x="228.42487099266145" y="-811.8660381725058" />
<node id="6785961623" x="528.0590196098783" y="28.17006879672408" />
<node id="6785961658" x="406.54999835183844" y="21.69111106544733" />
<node id="6786321690" x="629.7539189612726" y="899.2996738511138" />
<node id="6786321691" x="523.5803151733708" y="788.4806397436187" />
<node id="7147944038" x="320.2577980242204" y="20.04099972732365" />
<node id="7147944044" x="345.0373443297576" y="189.98206959292293" />
<node id="7147944046" x="350.6863439409062" y="189.8039486068301" />
<node id="7265460758" x="623.0794290920021" y="431.1208437271416" />
<node id="7265473766" x="-319.05185250751674" y="485.2892556921579" />
<node id="7265482108" x="-679.5699092792347" y="324.03148747514933" />
<node id="7265482110" x="-698.2419903859263" y="275.47043064190075" />
<node id="8666700466" x="287.7390081200283" y="-349.57425695983693" />
<node id="8675266535" x="648.1424899130361" y="-210.44034133804962" />
<node id="8699875147" x="-746.9586802808335" y="285.73178946692497" />
<node id="8699875155" x="-762.7300995057449" y="230.7250854773447" />
<node id="8699875156" x="-699.5473477750784" y="274.5559999779798" />
<node id="9169143586" x="710.5023849242134" y="474.86658950615674" />
<node id="9169143592" x="331.284269232885" y="863.7745581218041" />
</nodes>