<?xml version="1.0" encoding="UTF-8"?>

<!-- generated on 2022-10-04 17:18:04 by Eclipse SUMO netconvert Version 1.14.1
<configuration xmlns:xsi="http://www.w3.org/2001/XMLSchema-instance" xsi:noNamespaceSchemaLocation="http://sumo.dlr.de/xsd/netconvertConfiguration.xsd">

    <input>
        <node-files value="iit_delhi.nod.xml"/>
        <edge-files value="iit_delhi.edg.xml"/>
        <connection-files value="iit_delhi.con.xml"/>
    </input>

    <output>
        <output-file value="iit_delhi.net.xml"/>
    </output>

</configuration>
-->

<net version="1.9" junctionCornerDetail="5" limitTurnSpeed="5.50" xmlns:xsi="http://www.w3.org/2001/XMLSchema-instance" xsi:noNamespaceSchemaLocation="http://sumo.dlr.de/xsd/net_file.xsd">

    <location netOffset="1044.41,543.01" convBoundary="0.00,0.00,2087.41,1091.35" origBoundary="-1044.41,-543.01,1043.00,548.34" projParameter="!"/>

    <edge id=":10030780559_0" function="internal">
        <lane id=":10030780559_0_0" index="0" speed="13.89" length="14.66" shape="1022.28,548.75 1009.19,555.32"/>
    </edge>
    <edge id=":10030780559_1" function="internal">
        <lane id=":10030780559_1_0" index="0" speed="8.10" length="4.21" shape="1022.28,548.75 1018.65,550.06 1018.30,550.04"/>
    </edge>
    <edge id=":10030780559_2" function="internal">
        <lane id=":10030780559_2_0" index="0" speed="3.65" length="1.44" shape="1022.28,548.75 1020.85,548.61"/>
    </edge>
    <edge id=":10030780559_9" function="internal">
        <lane id=":10030780559_9_0" index="0" speed="8.10" length="10.15" shape="1018.30,550.04 1015.43,549.87 1012.61,548.18 1010.20,545.01"/>
    </edge>
    <edge id=":10030780559_10" function="internal">
        <lane id=":10030780559_10_0" index="0" speed="3.65" length="3.23" shape="1020.85,548.61 1020.12,548.09 1020.09,547.20 1020.77,545.93"/>
    </edge>
    <edge id=":10030780559_3" function="internal">
        <lane id=":10030780559_3_0" index="0" speed="6.63" length="9.28" shape="1012.99,543.44 1014.55,545.51 1016.37,546.62 1018.44,546.76 1020.77,545.93"/>
    </edge>
    <edge id=":10030780559_4" function="internal">
        <lane id=":10030780559_4_0" index="0" speed="7.88" length="14.47" shape="1012.99,543.44 1014.43,547.18 1014.28,550.40 1012.53,553.12 1009.19,555.32"/>
    </edge>
    <edge id=":10030780559_5" function="internal">
        <lane id=":10030780559_5_0" index="0" speed="3.65" length="4.67" shape="1012.99,543.44 1012.88,544.88 1012.38,545.62 1011.48,545.66 1010.20,545.01"/>
    </edge>
    <edge id=":10030780559_6" function="internal">
        <lane id=":10030780559_6_0" index="0" speed="6.36" length="9.04" shape="1007.82,552.43 1009.91,551.05 1011.01,549.35 1011.10,547.34 1010.20,545.01"/>
    </edge>
    <edge id=":10030780559_7" function="internal">
        <lane id=":10030780559_7_0" index="0" speed="13.89" length="14.49" shape="1007.82,552.43 1020.77,545.93"/>
    </edge>
    <edge id=":10030780559_8" function="internal">
        <lane id=":10030780559_8_0" index="0" speed="3.65" length="1.44" shape="1007.82,552.43 1009.25,552.64"/>
    </edge>
    <edge id=":10030780559_11" function="internal">
        <lane id=":10030780559_11_0" index="0" speed="3.65" length="3.23" shape="1009.25,552.64 1009.95,553.19 1009.93,554.09 1009.19,555.32"/>
    </edge>
    <edge id=":10030780565_0" function="internal">
        <lane id=":10030780565_0_0" index="0" speed="3.65" length="4.67" shape="994.36,438.59 994.97,437.29 995.71,436.78 996.56,437.06 997.52,438.13"/>
    </edge>
    <edge id=":10030780566_0" function="internal">
        <lane id=":10030780566_0_0" index="0" speed="13.89" length="16.87" shape="995.51,502.56 995.93,498.60 995.59,494.24 994.92,489.85 994.37,485.81"/>
    </edge>
    <edge id=":10030780566_1" function="internal">
        <lane id=":10030780566_1_0" index="0" speed="8.84" length="4.30" shape="995.51,502.56 996.77,498.45"/>
    </edge>
    <edge id=":10030780566_2" function="internal">
        <lane id=":10030780566_2_0" index="0" speed="3.73" length="1.77" shape="995.51,502.56 996.23,501.21 996.43,501.08"/>
    </edge>
    <edge id=":10030780566_9" function="internal">
        <lane id=":10030780566_9_0" index="0" speed="8.84" length="12.69" shape="996.77,498.45 997.46,496.24 999.51,491.87 1001.66,489.44 1003.91,488.96"/>
    </edge>
    <edge id=":10030780566_10" function="internal">
        <lane id=":10030780566_10_0" index="0" speed="3.73" length="3.20" shape="996.43,501.08 997.04,500.70 997.93,501.05 998.90,502.24"/>
    </edge>
    <edge id=":10030780566_3" function="internal">
        <lane id=":10030780566_3_0" index="0" speed="7.97" length="13.60" shape="1007.01,492.90 1004.49,493.05 1002.29,494.66 1000.43,497.72 998.90,502.24"/>
    </edge>
    <edge id=":10030780566_4" function="internal">
        <lane id=":10030780566_4_0" index="0" speed="9.36" length="15.18" shape="1007.01,492.90 1001.64,491.47 997.74,489.81 995.32,487.93 994.37,485.81"/>
    </edge>
    <edge id=":10030780566_5" function="internal">
        <lane id=":10030780566_5_0" index="0" speed="4.29" length="7.32" shape="1007.01,492.90 1004.76,493.08 1003.49,492.48 1003.21,491.11 1003.91,488.96"/>
    </edge>
    <edge id=":10030780566_6" function="internal">
        <lane id=":10030780566_6_0" index="0" speed="6.78" length="7.59" shape="997.55,485.47 998.03,486.50 999.24,487.43 1001.21,488.25 1003.91,488.96"/>
    </edge>
    <edge id=":10030780566_7" function="internal">
        <lane id=":10030780566_7_0" index="0" speed="13.89" length="16.91" shape="997.55,485.47 998.14,489.51 998.87,493.91 999.29,498.28 998.90,502.24"/>
    </edge>
    <edge id=":10030780566_8" function="internal">
        <lane id=":10030780566_8_0" index="0" speed="3.65" length="1.44" shape="997.55,485.47 996.88,486.75"/>
    </edge>
    <edge id=":10030780566_11" function="internal">
        <lane id=":10030780566_11_0" index="0" speed="3.65" length="3.23" shape="996.88,486.75 996.13,487.23 995.29,486.92 994.37,485.81"/>
    </edge>
    <edge id=":10030780571_0" function="internal">
        <lane id=":10030780571_0_0" index="0" speed="3.65" length="4.67" shape="1034.52,516.73 1034.96,518.10 1034.78,518.98 1033.96,519.36 1032.53,519.23"/>
    </edge>
    <edge id=":10030780617_0" function="internal">
        <lane id=":10030780617_0_0" index="0" speed="9.26" length="9.04" shape="1318.83,627.20 1317.22,626.87 1315.24,627.07 1312.91,627.79 1310.22,629.04"/>
    </edge>
    <edge id=":10030780617_1" function="internal">
        <lane id=":10030780617_1_0" index="0" speed="8.03" length="14.14" shape="1318.83,627.20 1315.50,625.24 1313.57,622.68 1313.06,619.52 1313.96,615.76"/>
    </edge>
    <edge id=":10030780617_2" function="internal">
        <lane id=":10030780617_2_0" index="0" speed="3.65" length="4.67" shape="1318.83,627.20 1318.03,626.00 1317.96,625.11 1318.63,624.52 1320.05,624.24"/>
    </edge>
    <edge id=":10030780617_3" function="internal">
        <lane id=":10030780617_3_0" index="0" speed="6.54" length="9.03" shape="1316.93,616.93 1316.36,619.33 1316.69,621.35 1317.92,622.99 1320.05,624.24"/>
    </edge>
    <edge id=":10030780617_4" function="internal">
        <lane id=":10030780617_4_0" index="0" speed="13.35" length="14.19" shape="1316.93,616.93 1315.73,620.46 1314.55,623.85 1312.88,626.82 1310.22,629.04"/>
    </edge>
    <edge id=":10030780617_5" function="internal">
        <lane id=":10030780617_5_0" index="0" speed="3.65" length="1.44" shape="1316.93,616.93 1315.75,617.75"/>
    </edge>
    <edge id=":10030780617_9" function="internal">
        <lane id=":10030780617_9_0" index="0" speed="3.65" length="3.23" shape="1315.75,617.75 1314.86,617.83 1314.26,617.17 1313.96,615.76"/>
    </edge>
    <edge id=":10030780617_6" function="internal">
        <lane id=":10030780617_6_0" index="0" speed="9.34" length="13.55" shape="1306.77,626.82 1308.29,626.09 1310.00,624.01 1311.88,620.56 1313.96,615.76"/>
    </edge>
    <edge id=":10030780617_7" function="internal">
        <lane id=":10030780617_7_0" index="0" speed="13.89" length="3.24" shape="1306.77,626.82 1309.93,626.16"/>
    </edge>
    <edge id=":10030780617_8" function="internal">
        <lane id=":10030780617_8_0" index="0" speed="4.24" length="2.81" shape="1306.77,626.82 1308.46,626.08 1309.41,626.18"/>
    </edge>
    <edge id=":10030780617_10" function="internal">
        <lane id=":10030780617_10_0" index="0" speed="13.89" length="10.55" shape="1309.93,626.16 1310.30,626.08 1313.55,624.75 1316.72,623.82 1320.05,624.24"/>
    </edge>
    <edge id=":10030780617_11" function="internal">
        <lane id=":10030780617_11_0" index="0" speed="4.24" length="3.19" shape="1309.41,626.18 1309.60,626.20 1310.19,627.19 1310.22,629.04"/>
    </edge>
    <edge id=":10030780645_0" function="internal">
        <lane id=":10030780645_0_0" index="0" speed="7.30" length="10.13" shape="1285.63,287.62 1283.31,286.83 1281.07,287.02 1278.91,288.18 1276.83,290.32"/>
    </edge>
    <edge id=":10030780645_1" function="internal">
        <lane id=":10030780645_1_0" index="0" speed="13.89" length="14.61" shape="1285.63,287.62 1272.57,281.06"/>
    </edge>
    <edge id=":10030780645_2" function="internal">
        <lane id=":10030780645_2_0" index="0" speed="3.65" length="1.44" shape="1285.63,287.62 1284.95,286.34"/>
    </edge>
    <edge id=":10030780645_9" function="internal">
        <lane id=":10030780645_9_0" index="0" speed="3.65" length="3.23" shape="1284.95,286.34 1284.98,285.45 1285.71,284.93 1287.15,284.80"/>
    </edge>
    <edge id=":10030780645_3" function="internal">
        <lane id=":10030780645_3_0" index="0" speed="13.89" length="14.78" shape="1273.94,278.16 1287.15,284.80"/>
    </edge>
    <edge id=":10030780645_4" function="internal">
        <lane id=":10030780645_4_0" index="0" speed="7.66" length="4.49" shape="1273.94,278.16 1277.51,280.53 1277.62,280.70"/>
    </edge>
    <edge id=":10030780645_5" function="internal">
        <lane id=":10030780645_5_0" index="0" speed="3.65" length="1.44" shape="1273.94,278.16 1274.68,279.40"/>
    </edge>
    <edge id=":10030780645_10" function="internal">
        <lane id=":10030780645_10_0" index="0" speed="7.66" length="10.62" shape="1277.62,280.70 1279.18,283.34 1278.95,286.60 1276.83,290.32"/>
    </edge>
    <edge id=":10030780645_11" function="internal">
        <lane id=":10030780645_11_0" index="0" speed="3.65" length="3.23" shape="1274.68,279.40 1274.70,280.29 1274.00,280.85 1272.57,281.06"/>
    </edge>
    <edge id=":10030780645_6" function="internal">
        <lane id=":10030780645_6_0" index="0" speed="6.08" length="9.06" shape="1274.31,288.35 1275.58,286.12 1275.72,284.16 1274.71,282.47 1272.57,281.06"/>
    </edge>
    <edge id=":10030780645_7" function="internal">
        <lane id=":10030780645_7_0" index="0" speed="8.67" length="14.68" shape="1274.31,288.35 1277.26,285.36 1280.39,283.78 1283.69,283.59 1287.15,284.80"/>
    </edge>
    <edge id=":10030780645_8" function="internal">
        <lane id=":10030780645_8_0" index="0" speed="3.65" length="4.67" shape="1274.31,288.35 1275.67,287.90 1276.55,288.07 1276.94,288.88 1276.83,290.32"/>
    </edge>
    <edge id=":10030780659_0" function="internal">
        <lane id=":10030780659_0_0" index="0" speed="3.65" length="4.67" shape="622.43,476.36 622.57,474.92 623.09,474.19 623.98,474.17 625.25,474.85"/>
    </edge>
    <edge id=":10030780660_0" function="internal">
        <lane id=":10030780660_0_0" index="0" speed="6.99" length="9.49" shape="286.59,311.73 284.72,310.19 282.67,309.57 280.45,309.86 278.06,311.07"/>
    </edge>
    <edge id=":10030780660_1" function="internal">
        <lane id=":10030780660_1_0" index="0" speed="13.89" length="14.22" shape="286.59,311.73 284.20,309.01 281.97,306.33 279.82,303.59 277.67,300.67"/>
    </edge>
    <edge id=":10030780660_2" function="internal">
        <lane id=":10030780660_2_0" index="0" speed="3.65" length="1.44" shape="286.59,311.73 286.37,310.31"/>
    </edge>
    <edge id=":10030780660_9" function="internal">
        <lane id=":10030780660_9_0" index="0" speed="3.65" length="3.23" shape="286.37,310.31 286.68,309.47 287.54,309.23 288.95,309.57"/>
    </edge>
    <edge id=":10030780660_3" function="internal">
        <lane id=":10030780660_3_0" index="0" speed="13.89" length="13.83" shape="280.27,298.81 282.38,301.68 284.45,304.31 286.59,306.89 288.95,309.57"/>
    </edge>
    <edge id=":10030780660_4" function="internal">
        <lane id=":10030780660_4_0" index="0" speed="7.95" length="3.94" shape="280.27,298.81 282.08,302.30"/>
    </edge>
    <edge id=":10030780660_5" function="internal">
        <lane id=":10030780660_5_0" index="0" speed="3.65" length="1.44" shape="280.27,298.81 280.32,300.25"/>
    </edge>
    <edge id=":10030780660_10" function="internal">
        <lane id=":10030780660_10_0" index="0" speed="7.95" length="10.37" shape="282.08,302.30 282.32,305.51 280.98,308.43 278.06,311.07"/>
    </edge>
    <edge id=":10030780660_11" function="internal">
        <lane id=":10030780660_11_0" index="0" speed="3.65" length="3.23" shape="280.32,300.25 279.90,301.04 279.02,301.18 277.67,300.67"/>
    </edge>
    <edge id=":10030780660_6" function="internal">
        <lane id=":10030780660_6_0" index="0" speed="6.45" length="9.03" shape="276.27,308.42 278.12,306.75 278.96,304.90 278.81,302.88 277.67,300.67"/>
    </edge>
    <edge id=":10030780660_7" function="internal">
        <lane id=":10030780660_7_0" index="0" speed="8.40" length="14.11" shape="276.27,308.42 279.79,306.65 283.07,306.26 286.13,307.23 288.95,309.57"/>
    </edge>
    <edge id=":10030780660_8" function="internal">
        <lane id=":10030780660_8_0" index="0" speed="3.65" length="4.67" shape="276.27,308.42 277.71,308.41 278.49,308.85 278.61,309.74 278.06,311.07"/>
    </edge>
    <edge id=":10030782395_0" function="internal">
        <lane id=":10030782395_0_0" index="0" speed="5.38" length="5.93" shape="772.46,666.03 771.43,663.80 770.54,662.27 769.81,661.44 769.23,661.32"/>
    </edge>
    <edge id=":10030782395_1" function="internal">
        <lane id=":10030782395_1_0" index="0" speed="8.06" length="14.22" shape="772.46,666.03 771.43,662.26 771.83,659.05 773.65,656.41 776.90,654.33"/>
    </edge>
    <edge id=":10030782395_2" function="internal">
        <lane id=":10030782395_2_0" index="0" speed="3.65" length="4.67" shape="772.46,666.03 772.73,664.62 773.30,663.93 774.19,663.98 775.40,664.77"/>
    </edge>
    <edge id=":10030782395_3" function="internal">
        <lane id=":10030782395_3_0" index="0" speed="6.58" length="9.13" shape="778.22,657.24 776.15,658.57 774.98,660.27 774.74,662.34 775.40,664.77"/>
    </edge>
    <edge id=":10030782395_4" function="internal">
        <lane id=":10030782395_4_0" index="0" speed="13.89" length="9.88" shape="778.22,657.24 769.23,661.32"/>
    </edge>
    <edge id=":10030782395_5" function="internal">
        <lane id=":10030782395_5_0" index="0" speed="3.65" length="1.44" shape="778.22,657.24 776.80,657.01"/>
    </edge>
    <edge id=":10030782395_9" function="internal">
        <lane id=":10030782395_9_0" index="0" speed="3.65" length="3.23" shape="776.80,657.01 776.10,656.45 776.14,655.55 776.90,654.33"/>
    </edge>
    <edge id=":10030782395_6" function="internal">
        <lane id=":10030782395_6_0" index="0" speed="13.89" length="9.88" shape="767.90,658.41 776.90,654.33"/>
    </edge>
    <edge id=":10030782395_7" function="internal">
        <lane id=":10030782395_7_0" index="0" speed="7.04" length="1.98" shape="767.90,658.41 769.87,658.13"/>
    </edge>
    <edge id=":10030782395_8" function="internal">
        <lane id=":10030782395_8_0" index="0" speed="3.65" length="1.44" shape="767.90,658.41 769.33,658.64"/>
    </edge>
    <edge id=":10030782395_10" function="internal">
        <lane id=":10030782395_10_0" index="0" speed="7.04" length="8.91" shape="769.87,658.13 771.77,659.10 773.62,661.31 775.40,664.77"/>
    </edge>
    <edge id=":10030782395_11" function="internal">
        <lane id=":10030782395_11_0" index="0" speed="3.65" length="3.23" shape="769.33,658.64 770.02,659.20 769.99,660.10 769.23,661.32"/>
    </edge>
    <edge id=":10030782400_0" function="internal">
        <lane id=":10030782400_0_0" index="0" speed="3.65" length="4.67" shape="853.96,731.31 854.62,732.60 854.59,733.49 853.85,734.00 852.41,734.12"/>
    </edge>
    <edge id=":10030782410_0" function="internal">
        <lane id=":10030782410_0_0" index="0" speed="13.89" length="0.30" shape="824.36,713.96 824.10,713.82"/>
    </edge>
    <edge id=":10030782410_1" function="internal">
        <lane id=":10030782410_1_0" index="0" speed="3.65" length="2.34" shape="824.36,713.96 823.69,712.68 823.73,711.79"/>
    </edge>
    <edge id=":10030782410_4" function="internal">
        <lane id=":10030782410_4_0" index="0" speed="3.65" length="2.34" shape="823.73,711.79 824.47,711.28 825.91,711.16"/>
    </edge>
    <edge id=":10030782410_2" function="internal">
        <lane id=":10030782410_2_0" index="0" speed="13.89" length="0.30" shape="825.64,711.01 825.91,711.16"/>
    </edge>
    <edge id=":10030782410_3" function="internal">
        <lane id=":10030782410_3_0" index="0" speed="3.65" length="2.34" shape="825.64,711.01 826.31,712.29 826.27,713.19"/>
    </edge>
    <edge id=":10030782410_5" function="internal">
        <lane id=":10030782410_5_0" index="0" speed="3.65" length="2.34" shape="826.27,713.19 825.53,713.70 824.10,713.82"/>
    </edge>
    <edge id=":10049590718_0" function="internal">
        <lane id=":10049590718_0_0" index="0" speed="6.34" length="9.04" shape="386.90,812.19 385.56,810.08 383.89,808.96 381.88,808.84 379.53,809.71"/>
    </edge>
    <edge id=":10049590718_1" function="internal">
        <lane id=":10049590718_1_0" index="0" speed="13.89" length="14.42" shape="386.90,812.19 381.01,799.03"/>
    </edge>
    <edge id=":10049590718_2" function="internal">
        <lane id=":10049590718_2_0" index="0" speed="3.65" length="1.44" shape="386.90,812.19 387.14,810.77"/>
    </edge>
    <edge id=":10049590718_9" function="internal">
        <lane id=":10049590718_9_0" index="0" speed="3.65" length="3.23" shape="387.14,810.77 387.71,810.08 388.60,810.12 389.82,810.89"/>
    </edge>
    <edge id=":10049590718_3" function="internal">
        <lane id=":10049590718_3_0" index="0" speed="13.89" length="14.42" shape="383.93,797.72 389.82,810.89"/>
    </edge>
    <edge id=":10049590718_4" function="internal">
        <lane id=":10049590718_4_0" index="0" speed="8.28" length="3.94" shape="383.93,797.72 384.95,801.36 384.93,801.52"/>
    </edge>
    <edge id=":10049590718_5" function="internal">
        <lane id=":10049590718_5_0" index="0" speed="3.65" length="1.44" shape="383.93,797.72 383.69,799.15"/>
    </edge>
    <edge id=":10049590718_10" function="internal">
        <lane id=":10049590718_10_0" index="0" speed="8.28" length="10.38" shape="384.93,801.52 384.56,804.57 382.75,807.35 379.53,809.71"/>
    </edge>
    <edge id=":10049590718_11" function="internal">
        <lane id=":10049590718_11_0" index="0" speed="3.65" length="3.23" shape="383.69,799.15 383.13,799.84 382.23,799.80 381.01,799.03"/>
    </edge>
    <edge id=":10049590718_6" function="internal">
        <lane id=":10049590718_6_0" index="0" speed="6.83" length="9.45" shape="378.00,806.91 380.15,805.34 381.38,803.50 381.66,801.40 381.01,799.03"/>
    </edge>
    <edge id=":10049590718_7" function="internal">
        <lane id=":10049590718_7_0" index="0" speed="7.86" length="14.51" shape="378.00,806.91 381.76,805.50 384.99,805.69 387.68,807.49 389.82,810.89"/>
    </edge>
    <edge id=":10049590718_8" function="internal">
        <lane id=":10049590718_8_0" index="0" speed="3.65" length="4.67" shape="378.00,806.91 379.43,807.03 380.17,807.54 380.20,808.44 379.53,809.71"/>
    </edge>
    <edge id=":10049590721_0" function="internal">
        <lane id=":10049590721_0_0" index="0" speed="3.65" length="4.67" shape="339.73,807.47 338.89,806.30 338.80,805.41 339.46,804.80 340.87,804.48"/>
    </edge>
    <edge id=":10049590723_0" function="internal">
        <lane id=":10049590723_0_0" index="0" speed="6.19" length="10.79" shape="4.87,660.63 1.81,659.70 0.24,658.14 0.16,655.93 1.57,653.09"/>
    </edge>
    <edge id=":10049590723_1" function="internal">
        <lane id=":10049590723_1_0" index="0" speed="3.65" length="1.44" shape="4.87,660.63 3.81,659.65"/>
    </edge>
    <edge id=":10049590723_4" function="internal">
        <lane id=":10049590723_4_0" index="0" speed="3.65" length="3.23" shape="3.81,659.65 3.54,658.80 4.06,658.07 5.37,657.47"/>
    </edge>
    <edge id=":10049590723_2" function="internal">
        <lane id=":10049590723_2_0" index="0" speed="4.00" length="3.69" shape="4.21,654.91 3.73,655.87 3.77,656.62 4.32,657.15 5.37,657.47"/>
    </edge>
    <edge id=":10049590723_3" function="internal">
        <lane id=":10049590723_3_0" index="0" speed="3.65" length="1.30" shape="4.21,654.91 3.00,655.39"/>
    </edge>
    <edge id=":10049590723_5" function="internal">
        <lane id=":10049590723_5_0" index="0" speed="3.65" length="3.37" shape="3.00,655.39 2.87,655.44 1.98,655.32 1.55,654.53 1.57,653.09"/>
    </edge>
    <edge id=":10049605855_0" function="internal">
        <lane id=":10049605855_0_0" index="0" speed="13.89" length="14.40" shape="649.58,508.20 636.92,515.05"/>
    </edge>
    <edge id=":10049605855_1" function="internal">
        <lane id=":10049605855_1_0" index="0" speed="8.12" length="3.94" shape="649.58,508.20 645.84,509.45"/>
    </edge>
    <edge id=":10049605855_2" function="internal">
        <lane id=":10049605855_2_0" index="0" speed="3.65" length="1.44" shape="649.58,508.20 648.14,508.09"/>
    </edge>
    <edge id=":10049605855_9" function="internal">
        <lane id=":10049605855_9_0" index="0" speed="8.12" length="10.32" shape="645.84,509.45 642.59,509.25 639.81,507.61 637.53,504.52"/>
    </edge>
    <edge id=":10049605855_10" function="internal">
        <lane id=":10049605855_10_0" index="0" speed="3.65" length="3.24" shape="648.14,508.09 647.40,507.58 647.36,506.69 648.02,505.40"/>
    </edge>
    <edge id=":10049605855_3" function="internal">
        <lane id=":10049605855_3_0" index="0" speed="6.60" length="9.10" shape="640.35,503.01 641.81,504.99 643.58,506.05 645.65,506.19 648.02,505.40"/>
    </edge>
    <edge id=":10049605855_4" function="internal">
        <lane id=":10049605855_4_0" index="0" speed="8.06" length="14.22" shape="640.35,503.01 641.70,506.68 641.58,509.91 639.99,512.70 636.92,515.05"/>
    </edge>
    <edge id=":10049605855_5" function="internal">
        <lane id=":10049605855_5_0" index="0" speed="3.65" length="4.67" shape="640.35,503.01 640.21,504.45 639.70,505.18 638.80,505.20 637.53,504.52"/>
    </edge>
    <edge id=":10049605855_6" function="internal">
        <lane id=":10049605855_6_0" index="0" speed="6.58" length="9.13" shape="635.36,512.26 637.32,510.75 638.33,508.96 638.40,506.89 637.53,504.52"/>
    </edge>
    <edge id=":10049605855_7" function="internal">
        <lane id=":10049605855_7_0" index="0" speed="13.89" length="14.40" shape="635.36,512.26 648.02,505.40"/>
    </edge>
    <edge id=":10049605855_8" function="internal">
        <lane id=":10049605855_8_0" index="0" speed="3.65" length="1.44" shape="635.36,512.26 636.79,512.37"/>
    </edge>
    <edge id=":10049605855_11" function="internal">
        <lane id=":10049605855_11_0" index="0" speed="3.65" length="3.23" shape="636.79,512.37 637.53,512.87 637.58,513.77 636.92,515.05"/>
    </edge>
    <edge id=":10049605857_0" function="internal">
        <lane id=":10049605857_0_0" index="0" speed="3.65" length="4.67" shape="2087.95,509.45 2088.81,510.62 2088.91,511.50 2088.26,512.12 2086.86,512.46"/>
    </edge>
    <edge id=":10049605858_0" function="internal">
        <lane id=":10049605858_0_0" index="0" speed="3.65" length="4.67" shape="2083.47,467.47 2084.65,468.30 2085.03,469.11 2084.61,469.90 2083.39,470.67"/>
    </edge>
    <edge id=":10049616472_0" function="internal">
        <lane id=":10049616472_0_0" index="0" speed="13.89" length="0.10" shape="1287.56,624.04 1287.56,624.04"/>
    </edge>
    <edge id=":10049616472_1" function="internal">
        <lane id=":10049616472_1_0" index="0" speed="3.65" length="2.34" shape="1287.56,624.04 1286.78,622.82 1286.74,621.92"/>
    </edge>
    <edge id=":10049616472_4" function="internal">
        <lane id=":10049616472_4_0" index="0" speed="3.65" length="2.34" shape="1286.74,621.92 1287.43,621.36 1288.85,621.11"/>
    </edge>
    <edge id=":10049616472_2" function="internal">
        <lane id=":10049616472_2_0" index="0" speed="13.89" length="0.10" shape="1288.86,621.11 1288.85,621.11"/>
    </edge>
    <edge id=":10049616472_3" function="internal">
        <lane id=":10049616472_3_0" index="0" speed="3.65" length="2.34" shape="1288.86,621.11 1289.63,622.33 1289.67,623.22"/>
    </edge>
    <edge id=":10049616472_5" function="internal">
        <lane id=":10049616472_5_0" index="0" speed="3.65" length="2.34" shape="1289.67,623.22 1288.98,623.79 1287.56,624.04"/>
    </edge>
    <edge id=":10049616475_0" function="internal">
        <lane id=":10049616475_0_0" index="0" speed="13.89" length="0.30" shape="1301.33,629.71 1301.03,629.64"/>
    </edge>
    <edge id=":10049616475_1" function="internal">
        <lane id=":10049616475_1_0" index="0" speed="3.65" length="2.34" shape="1301.33,629.71 1300.33,628.66 1300.12,627.80"/>
    </edge>
    <edge id=":10049616475_4" function="internal">
        <lane id=":10049616475_4_0" index="0" speed="3.65" length="2.34" shape="1300.12,627.80 1300.69,627.10 1302.04,626.59"/>
    </edge>
    <edge id=":10049616475_2" function="internal">
        <lane id=":10049616475_2_0" index="0" speed="13.89" length="0.30" shape="1301.75,626.52 1302.04,626.59"/>
    </edge>
    <edge id=":10049616475_3" function="internal">
        <lane id=":10049616475_3_0" index="0" speed="3.65" length="2.34" shape="1301.75,626.52 1302.74,627.57 1302.95,628.44"/>
    </edge>
    <edge id=":10049616475_5" function="internal">
        <lane id=":10049616475_5_0" index="0" speed="3.65" length="2.34" shape="1302.95,628.44 1302.38,629.13 1301.03,629.64"/>
    </edge>
    <edge id=":10049646662_0" function="internal">
        <lane id=":10049646662_0_0" index="0" speed="3.65" length="4.67" shape="454.27,923.52 453.84,924.90 453.18,925.50 452.30,925.35 451.20,924.42"/>
    </edge>
    <edge id=":10049646688_0" function="internal">
        <lane id=":10049646688_0_0" index="0" speed="3.65" length="4.67" shape="848.62,647.65 847.27,648.15 846.38,648.00 845.97,647.21 846.03,645.77"/>
    </edge>
    <edge id=":10049647636_0" function="internal">
        <lane id=":10049647636_0_0" index="0" speed="3.65" length="4.67" shape="1069.28,539.25 1070.31,538.24 1071.18,538.01 1071.88,538.56 1072.42,539.90"/>
    </edge>
    <edge id=":10049647640_0" function="internal">
        <lane id=":10049647640_0_0" index="0" speed="13.89" length="14.41" shape="1115.20,569.37 1109.34,582.53"/>
    </edge>
    <edge id=":10049647640_1" function="internal">
        <lane id=":10049647640_1_0" index="0" speed="8.13" length="4.00" shape="1115.20,569.37 1113.16,572.61 1113.02,572.71"/>
    </edge>
    <edge id=":10049647640_2" function="internal">
        <lane id=":10049647640_2_0" index="0" speed="3.65" length="1.44" shape="1115.20,569.37 1113.99,570.14"/>
    </edge>
    <edge id=":10049647640_9" function="internal">
        <lane id=":10049647640_9_0" index="0" speed="8.13" length="10.25" shape="1113.02,572.71 1110.52,574.45 1107.29,574.90 1103.46,573.96"/>
    </edge>
    <edge id=":10049647640_10" function="internal">
        <lane id=":10049647640_10_0" index="0" speed="3.65" length="3.23" shape="1113.99,570.14 1113.09,570.18 1112.52,569.49 1112.28,568.07"/>
    </edge>
    <edge id=":10049647640_3" function="internal">
        <lane id=":10049647640_3_0" index="0" speed="6.67" length="9.24" shape="1104.65,570.98 1107.14,571.61 1109.25,571.33 1110.96,570.15 1112.28,568.07"/>
    </edge>
    <edge id=":10049647640_4" function="internal">
        <lane id=":10049647640_4_0" index="0" speed="7.93" length="14.35" shape="1104.65,570.98 1108.07,572.95 1110.00,575.54 1110.42,578.73 1109.34,582.53"/>
    </edge>
    <edge id=":10049647640_5" function="internal">
        <lane id=":10049647640_5_0" index="0" speed="3.65" length="4.67" shape="1104.65,570.98 1105.47,572.17 1105.54,573.06 1104.87,573.66 1103.46,573.96"/>
    </edge>
    <edge id=":10049647640_6" function="internal">
        <lane id=":10049647640_6_0" index="0" speed="6.42" length="9.04" shape="1106.42,581.23 1107.10,578.83 1106.83,576.82 1105.62,575.20 1103.46,573.96"/>
    </edge>
    <edge id=":10049647640_7" function="internal">
        <lane id=":10049647640_7_0" index="0" speed="13.89" length="14.41" shape="1106.42,581.23 1112.28,568.07"/>
    </edge>
    <edge id=":10049647640_8" function="internal">
        <lane id=":10049647640_8_0" index="0" speed="3.65" length="1.44" shape="1106.42,581.23 1107.64,580.46"/>
    </edge>
    <edge id=":10049647640_11" function="internal">
        <lane id=":10049647640_11_0" index="0" speed="3.65" length="3.23" shape="1107.64,580.46 1108.53,580.42 1109.10,581.11 1109.34,582.53"/>
    </edge>
    <edge id=":10049664258_0" function="internal">
        <lane id=":10049664258_0_0" index="0" speed="8.78" length="10.11" shape="1909.70,226.08 1909.05,224.85 1907.47,223.51 1904.96,222.08 1901.53,220.55"/>
    </edge>
    <edge id=":10049664258_1" function="internal">
        <lane id=":10049664258_1_0" index="0" speed="13.89" length="12.79" shape="1909.70,226.08 1909.20,222.72 1908.88,219.74 1908.73,216.76 1908.74,213.36"/>
    </edge>
    <edge id=":10049664258_2" function="internal">
        <lane id=":10049664258_2_0" index="0" speed="3.74" length="1.46" shape="1909.70,226.08 1910.21,224.72"/>
    </edge>
    <edge id=":10049664258_9" function="internal">