<edges>
<edge from="61283218" to="5456384066" id="61283218to5456384066" numLanes="1" shape="-504.1180306295864,-261.77192624937743 -501.2547987108119,-268.6205303706229 -497.8858953146264,-276.68164103105664 -497.8858953146264,-276.68164103105664" />
<edge from="61283218" to="5492841607" id="61283218to5492841607" numLanes="1" shape="-504.1180306295864,-261.77192624937743 -422.76955662085675,-210.7289641276002 -398.3313419945771,-194.91118216048926 -398.3313419945771,-194.91118216048926" />
<edge from="61283218" to="6290254763" id="61283218to6290254763" numLanes="1" shape="-504.1180306295864,-261.77192624937743 -515.1508119768114,-268.68779172189534 -521.1444930428988,-272.45057299826294 -521.1444930428988,-272.45057299826294" />
<edge from="61283269" to="4040435533" id="61283269to4040435533" numLanes="1" shape="201.79098003474064,182.77081550750881 212.02224172541173,173.60761588718742 223.98693319573067,162.89061607141048 238.07005487557035,149.18812821339816 248.7597539984854,137.89148660656065 255.04426906595472,130.7478104652837 255.04426906595472,130.7478104652837" />
<edge from="61283269" to="7862116651" id="61283269to7862116651" numLanes="1" shape="201.79098003474064,182.77081550750881 213.31012245896272,189.75352829508483 219.64254110096954,193.91965755354613 219.64254110096954,193.91965755354613" />
<edge from="61283269" to="9632096352" id="61283269to9632096352" numLanes="1" shape="201.79098003474064,182.77081550750881 192.80939480412053,176.1033498113975 189.23350044811377,173.44706493988633 156.56363694614265,153.1969959223643 156.56363694614265,153.1969959223643" />
<edge from="61283269" to="8324159322" id="61283269to8324159322" numLanes="1" shape="201.79098003474064,182.77081550750881 189.60071646625875,193.3600849006325 179.66959328990197,201.9937040079385 179.66959328990197,201.9937040079385" />
<edge from="61283311" to="7071581206" id="61283311to7071581206" numLanes="1" shape="28.468028729665093,-204.1303927199915 1.446727792848833,-215.46368966437876" />
<edge from="61283311" to="61327823" id="61283311to61327823" numLanes="1" shape="28.468028729665093,-204.1303927199915 28.468028729665093,-204.1303927199915 39.98561133292969,-199.24787222966552 58.43210132542299,-191.42514357343316 145.78351867361926,-154.39046190865338 167.6430932036019,-144.82938894629478 176.93165740848053,-140.76948106009513" />
<edge from="61317286" to="267542180" id="61317286to267542180" numLanes="1" shape="379.151652296423,290.9673966700211 359.7582369892625,278.7561509218067" />
<edge from="61317286" to="7069072767" id="61317286to7069072767" numLanes="1" shape="379.151652296423,290.9673966700211 391.6997414614307,298.92504095844924 396.69739328545984,302.1019693398848 431.118952694349,323.9432876855135 440.7205635661958,330.04022636730224 448.4641472271178,334.97180798090994 448.4641472271178,334.97180798090994" />
<edge from="61317286" to="545574528" id="61317286to545574528" numLanes="1" shape="379.151652296423,290.9673966700211 379.151652296423,290.9673966700211 382.0788802676834,284.01760624721646 385.402328975033,276.0914040263742 389.99569240689743,265.18952007126063 396.3351617374574,249.5669165495783 397.486192895507,246.7830485329032 399.1726924122777,242.31934663373977" />
<edge from="61317287" to="267542180" id="61317287to267542180" numLanes="1" shape="300.79619732988067,243.51973921153694 359.7582369892625,278.7561509218067" />
<edge from="61317287" to="61333464" id="61317287to61333464" numLanes="1" shape="300.79619732988067,243.51973921153694 302.7445569213014,238.649563848041 312.9004512474057,219.3995661949739 314.82791984820506,215.01879451610148 336.4673647531308,165.84181338734925 336.4673647531308,165.84181338734925" />
<edge from="61317287" to="7862116651" id="61317287to7862116651" numLanes="1" shape="300.79619732988067,243.51973921153694 288.5522786040092,236.21030445583165 263.13354829663876,220.93665827345103 245.22940519772237,209.98900650721043 219.64254110096954,193.91965755354613 219.64254110096954,193.91965755354613" />
<edge from="61317302" to="8859547395" id="61317302to8859547395" numLanes="1" shape="-597.8483747694409,-320.57412691786885 -595.6616478246287,-327.11713625490665 -562.4239948828472,-426.61740936152637 -562.4239948828472,-426.61740936152637" />
<edge from="61317302" to="6290254763" id="61317302to6290254763" numLanes="1" shape="-597.8483747694409,-320.57412691786885 -590.8920722308103,-316.2130168834701 -545.763622970786,-287.8968113558367 -524.8529355435749,-274.78101738076657 -521.1444930428988,-272.45057299826294 -521.1444930428988,-272.45057299826294" />
<edge from="61321312" to="2446018253" id="61321312to2446018253" numLanes="1" shape="344.73623600730207,-38.47109668981284 332.7038873776328,-43.53030378278345 299.1972988577327,-57.58273360040039 299.1972988577327,-57.58273360040039" />
<edge from="61321312" to="4040435533" id="61321312to4040435533" numLanes="1" shape="344.73623600730207,-38.47109668981284 340.88962408993393,-27.02092321962118 333.40403737395536,-4.725675134919584 327.4766316023888,12.2423688294366 321.2814989965409,27.37258543074131 315.06925814936403,40.80324568133801 306.9351479167817,57.17011314909905 300.4414354901528,69.20773490704596 292.02239902480505,83.03721965197474 283.56008979084436,96.11223346646875 273.9413160352269,108.73797589819878 270.12213632115163,113.265361353755 268.8729633061448,114.74056882504374 259.01194128528005,126.22786808479577 255.04426906595472,130.7478104652837 255.04426906595472,130.7478104652837" />
<edge from="61321580" to="5458830610" id="61321580to5458830610" numLanes="1" shape="-233.25191407708917,63.818330593407154 -239.28041322308127,68.63392954785377 -287.2684694416821,109.51965232100338 -287.2684694416821,109.51965232100338" />
<edge from="61321580" to="2697095090" id="61321580to2697095090" numLanes="1" shape="-233.25191407708917,63.818330593407154 -228.75687971967272,59.64062180463225 -214.51050378172658,47.2331511862576 -173.77214174438268,13.738106426782906 -186.10674450732768,6.131696124561131 -180.47064754122403,-1.8963654479011893 -178.2271848572418,-5.15176169667393 -176.36201151343994,-8.375591609627008 -172.66644466423895,-6.555766290053725 -167.4835184676922,-4.906006440520287 -167.4835184676922,-4.906006440520287" />
<edge from="61321580" to="5458830608" id="61321580to5458830608" numLanes="1" shape="-233.25191407708917,63.818330593407154 -225.57040843827417,69.2062944592908 -209.1549168882193,79.22291477397084 -209.1549168882193,79.22291477397084" />
<edge from="61321580" to="7672953215" id="61321580to7672953215" numLanes="1" shape="-233.25191407708917,63.818330593407154 -238.91161772189662,59.880411833524704 -298.6640766451601,20.879447798244655 -298.6640766451601,20.879447798244655" />
<edge from="61324628" to="61324632" id="61324628to61324632" numLanes="1" shape="-62.25439266778994,-231.78053764346987 -73.01170238800114,-235.57055807299912 -87.8753705691779,-241.45918631833047 -161.43466738064308,-273.85393565893173 -161.43466738064308,-273.85393565893173" />
<edge from="61324628" to="4330581241" id="61324628to4330581241" numLanes="1" shape="-62.25439266778994,-231.78053764346987 -64.22296968725277,-227.06531384028494 -74.93670172779821,-201.37881278898567 -74.93670172779821,-201.37881278898567" />
<edge from="61324628" to="7071581206" id="61324628to7071581206" numLanes="1" shape="-62.25439266778994,-231.78053764346987 -62.25439266778994,-231.78053764346987 -58.718200124567375,-231.07892973627895 -54.36001868813764,-231.46426654793322 -45.89727960608434,-233.1620001429692 -42.309450889530126,-233.03943233564496 -38.581642079458106,-232.25365477986634 1.446727792848833,-215.46368966437876" />
<edge from="61324632" to="61324628" id="61324632to61324628" numLanes="1" shape="-161.43466738064308,-273.85393565893173 -161.43466738064308,-273.85393565893173 -87.8753705691779,-241.45918631833047 -73.01170238800114,-235.57055807299912 -62.25439266778994,-231.78053764346987" />
<edge from="61324632" to="9070976123" id="61324632to9070976123" numLanes="1" shape="-161.43466738064308,-273.85393565893173 -244.27305209229235,-307.87424765434116" />
<edge from="61324673" to="61327823" id="61324673to61327823" numLanes="1" shape="165.83855002798373,-113.72960009612143 168.08840036590118,-119.07390399463475 176.93165740848053,-140.76948106009513 176.93165740848053,-140.76948106009513" />
<edge from="61324673" to="3726719625" id="61324673to3726719625" numLanes="1" shape="165.83855002798373,-113.72960009612143 172.5082026926102,-110.93846764508635 213.53620832238812,-93.66088594030589 221.48862667486537,-90.31243561208248 222.57954753318336,-89.85043274611235 222.57954753318336,-89.85043274611235" />
<edge from="61324673" to="3726719630" id="61324673to3726719630" numLanes="1" shape="165.83855002798373,-113.72960009612143 160.4681548057124,-115.63053848966956 149.08745208900655,-119.64996000006795 143.64440440235194,-119.14911360479891 140.2009146111086,-117.43090143892914 136.61753130989382,-113.36481222137809 135.09560209268238,-109.91620619595051 135.09560209268238,-109.91620619595051" />
<edge from="61327823" to="61324673" id="61327823to61324673" numLanes="1" shape="176.93165740848053,-140.76948106009513 176.93165740848053,-140.76948106009513 168.08840036590118,-119.07390399463475 165.83855002798373,-113.72960009612143" />
<edge from="61327823" to="61283311" id="61327823to61283311" numLanes="1" shape="176.93165740848053,-140.76948106009513 167.6430932036019,-144.82938894629478 145.78351867361926,-154.39046190865338 58.43210132542299,-191.42514357343316 39.98561133292969,-199.24787222966552 28.468028729665093,-204.1303927199915 28.468028729665093,-204.1303927199915" />
<edge from="61333464" to="61317287" id="61333464to61317287" numLanes="1" shape="336.4673647531308,165.84181338734925 336.4673647531308,165.84181338734925 314.82791984820506,215.01879451610148 312.9004512474057,219.3995661949739 302.7445569213014,238.649563848041 300.79619732988067,243.51973921153694" />
<edge from="61333464" to="4040435540" id="61333464to4040435540" numLanes="1" shape="336.4673647531308,165.84181338734925 395.18218626850285,190.6847272515297 406.4987444160506,195.47275410220027 437.55894274660386,208.61918106582016 479.30275414232165,226.29167975578457 487.3548687971779,229.69350872840732 487.3548687971779,229.69350872840732" />
<edge from="61333464" to="4040435533" id="61333464to4040435533" numLanes="1" shape="336.4673647531308,165.84181338734925 324.94235915504396,160.95902930013835 309.7749606501311,154.3993262918666 304.53606010240037,152.13949854671955 297.5230376702966,149.11227133963257 283.0220816722722,142.8473159102723 268.5290604667971,136.57108262833208 255.04426906595472,130.7478104652837 255.04426906595472,130.7478104652837" />
<edge from="267542180" to="61317286" id="267542180to61317286" numLanes="1" shape="359.7582369892625,278.7561509218067 379.151652296423,290.9673966700211" />
<edge from="267542180" to="61317287" id="267542180to61317287" numLanes="1" shape="359.7582369892625,278.7561509218067 300.79619732988067,243.51973921153694" />
<edge from="267542180" to="545574528" id="267542180to545574528" numLanes="1" shape="359.7582369892625,278.7561509218067 362.2725287907524,272.43873681873083 364.23547712212894,267.49044383782893 376.3942105395254,238.21353792212903 378.1020582791534,234.28263333346695 388.4669168484397,238.2385130552575 399.1726924122777,242.31934663373977 399.1726924122777,242.31934663373977" />
<edge from="545574528" to="267542180" id="545574528to267542180" numLanes="1" shape="399.1726924122777,242.31934663373977 399.1726924122777,242.31934663373977 388.4669168484397,238.2385130552575 378.1020582791534,234.28263333346695 376.3942105395254,238.21353792212903 364.23547712212894,267.49044383782893 362.2725287907524,272.43873681873083 359.7582369892625,278.7561509218067" />
<edge from="545574528" to="8044609893" id="545574528to8044609893" numLanes="1" shape="399.1726924122777,242.31934663373977 425.33273402927443,252.57526510488242 431.3992456740234,256.6592334602028 434.6424395299982,260.5349237974733 436.5078015945619,265.01119018159807 435.8934076410951,270.5151503505185 435.8934076410951,270.5151503505185" />
<edge from="545574528" to="61317286" id="545574528to61317286" numLanes="1" shape="399.1726924122777,242.31934663373977 397.486192895507,246.7830485329032 396.3351617374574,249.5669165495783 389.99569240689743,265.18952007126063 385.402328975033,276.0914040263742 382.0788802676834,284.01760624721646 379.151652296423,290.9673966700211 379.151652296423,290.9673966700211" />
<edge from="621117489" to="7069072767" id="621117489to7069072767" numLanes="1" shape="485.7979531318415,358.6416828799993 448.4641472271178,334.97180798090994" />
<edge from="621117489" to="3620910929" id="621117489to3620910929" numLanes="1" shape="485.7979531318415,358.6416828799993 496.71198814036325,366.1730507956818 507.71822567126947,373.76883197110146 539.0392998094321,396.22025975212455 548.6425456308061,403.0617333734408 556.5050042631337,408.8127162847668 562.709895697888,413.17115909792483 574.6385930868564,420.7554595535621 590.3836894291453,430.4014549385756 594.4816591085983,433.1895341333002 597.0721838806057,434.99247485306114 600.7354121578392,437.19125482439995 600.7354121578392,437.19125482439995" />
<edge from="621117489" to="4013000093" id="621117489to4013000093" numLanes="1" shape="485.7979531318415,358.6416828799993 488.0300629315898,352.90903355460614 489.5773711738293,348.81544251926243 497.60108231019694,328.29598441161215 497.60108231019694,328.29598441161215" />
<edge from="1705822880" to="6756031135" id="1705822880to6756031135" numLanes="1" shape="-390.4472331587458,-34.71783787943423 -370.16103062813636,-24.15284779202193 -345.3944089001743,-7.6874852711334825 -345.3944089001743,-7.6874852711334825" />
<edge from="1830061703" to="2446018253" id="1830061703to2446018253" numLanes="1" shape="259.9096673737513,37.57315266504884 279.1703272809973,-7.823185034096241 282.6501191680436,-16.764384386129677 295.8370156955207,-50.14447577856481 299.1972988577327,-57.58273360040039 299.1972988577327,-57.58273360040039" />
<edge from="2446018253" to="61321312" id="2446018253to61321312" numLanes="1" shape="299.1972988577327,-57.58273360040039 299.1972988577327,-57.58273360040039 332.7038873776328,-43.53030378278345 344.73623600730207,-38.47109668981284" />
<edge from="2446018253" to="1830061703" id="2446018253to1830061703" numLanes="1" shape="299.1972988577327,-57.58273360040039 299.1972988577327,-57.58273360040039 295.8370156955207,-50.14447577856481 282.6501191680436,-16.764384386129677 279.1703272809973,-7.823185034096241 259.9096673737513,37.57315266504884" />
<edge from="2446018253" to="3726719016" id="2446018253to3726719016" numLanes="1" shape="299.1972988577327,-57.58273360040039 295.70743074966595,-59.08564947824925 267.8534655235708,-70.81052013300359 267.8534655235708,-70.81052013300359" />
<edge from="2697095090" to="61321580" id="2697095090to61321580" numLanes="1" shape="-167.4835184676922,-4.906006440520287 -167.4835184676922,-4.906006440520287 -172.66644466423895,-6.555766290053725 -176.36201151343994,-8.375591609627008 -178.2271848572418,-5.15176169667393 -180.47064754122403,-1.8963654479011893 -186.10674450732768,6.131696124561131 -173.77214174438268,13.738106426782906 -214.51050378172658,47.2331511862576 -228.75687971967272,59.64062180463225 -233.25191407708917,63.818330593407154" />
<edge from="2697095090" to="9632096437" id="2697095090to9632096437" numLanes="1" shape="-167.4835184676922,-4.906006440520287 -153.3647172607598,-21.487943302839994 -148.57119379763026,-24.928525410592556 -147.03413963585626,-25.08870428893715 -136.37353489821544,-18.529771712608635 -136.37353489821544,-18.529771712608635" />
<edge from="3620910929" to="621117489" id="3620910929to621117489" numLanes="1" shape="600.7354121578392,437.19125482439995 600.7354121578392,437.19125482439995 597.0721838806057,434.99247485306114 594.4816591085983,433.1895341333002 590.3836894291453,430.4014549385756 574.6385930868564,420.7554595535621 562.709895697888,413.17115909792483 556.5050042631337,408.8127162847668 548.6425456308061,403.0617333734408 539.0392998094321,396.22025975212455 507.71822567126947,373.76883197110146 496.71198814036325,366.1730507956818 485.7979531318415,358.6416828799993" />
<edge from="3620910929" to="7069072768" id="3620910929to7069072768" numLanes="1" shape="600.7354121578392,437.19125482439995 593.5026380302152,438.61355532426387 583.3192043094896,431.63073996733874 564.1230541310506,419.70300069171935 556.0675730542862,414.4789750389755 548.2920338327531,409.58140181098133 536.879056669015,402.1955658495426 524.82484532753,394.5366368535906 508.6723035975592,384.07859069947153 502.8284907975467,380.6668546758592 492.2720729766879,373.93778223358095 457.43017455900554,351.73986719641834 443.4356986490311,342.9288332024589 443.4356986490311,342.9288332024589" />
<edge from="3726719016" to="2446018253" id="3726719016to2446018253" numLanes="1" shape="267.8534655235708,-70.81052013300359 267.8534655235708,-70.81052013300359 295.70743074966595,-59.08564947824925 299.1972988577327,-57.58273360040039" />
<edge from="3726719016" to="3726719625" id="3726719016to3726719625" numLanes="1" shape="267.8534655235708,-70.81052013300359 264.3394234733423,-72.29060352779925 249.33093381667277,-78.39856661204249 222.57954753318336,-89.85043274611235 222.57954753318336,-89.85043274611235" />
<edge from="3726719625" to="61324673" id="3726719625to61324673" numLanes="1" shape="222.57954753318336,-89.85043274611235 222.57954753318336,-89.85043274611235 221.48862667486537,-90.31243561208248 213.53620832238812,-93.66088594030589 172.5082026926102,-110.93846764508635 165.83855002798373,-113.72960009612143" />
<edge from="3726719625" to="3726719016" id="3726719625to3726719016" numLanes="1" shape="222.57954753318336,-89.85043274611235 222.57954753318336,-89.85043274611235 249.33093381667277,-78.39856661204249 264.3394234733423,-72.29060352779925 267.8534655235708,-70.81052013300359" />
<edge from="3726719630" to="61324673" id="3726719630to61324673" numLanes="1" shape="135.09560209268238,-109.91620619595051 135.09560209268238,-109.91620619595051 136.61753130989382,-113.36481222137809 140.2009146111086,-117.43090143892914 143.64440440235194,-119.14911360479891 149.08745208900655,-119.64996000006795 160.4681548057124,-115.63053848966956 165.83855002798373,-113.72960009612143" />
<edge from="4013000093" to="621117489" id="4013000093to621117489" numLanes="1" shape="497.60108231019694,328.29598441161215 497.60108231019694,328.29598441161215 489.5773711738293,348.81544251926243 488.0300629315898,352.90903355460614 485.7979531318415,358.6416828799993" />
<edge from="4040435533" to="61283269" id="4040435533to61283269" numLanes="1" shape="255.04426906595472,130.7478104652837 255.04426906595472,130.7478104652837 248.7597539984854,137.89148660656065 238.07005487557035,149.18812821339816 223.98693319573067,162.89061607141048 212.02224172541173,173.60761588718742 201.79098003474064,182.77081550750881" />
<edge from="4040435533" to="61321312" id="4040435533to61321312" numLanes="1" shape="255.04426906595472,130.7478104652837 255.04426906595472,130.7478104652837 259.01194128528005,126.22786808479577 268.8729633061448,114.74056882504374 270.12213632115163,113.265361353755 273.9413160352269,108.73797589819878 283.56008979084436,96.11223346646875 292.02239902480505,83.03721965197474 300.4414354901528,69.20773490704596 306.9351479167817,57.17011314909905 315.06925814936403,40.80324568133801 321.2814989965409,27.37258543074131 327.4766316023888,12.2423688294366 333.40403737395536,-4.725675134919584 340.88962408993393,-27.02092321962118 344.73623600730207,-38.47109668981284" />
<edge from="4040435533" to="61333464" id="4040435533to61333464" numLanes="1" shape="255.04426906595472,130.7478104652837 255.04426906595472,130.7478104652837 268.5290604667971,136.57108262833208 283.0220816722722,142.8473159102723 297.5230376702966,149.11227133963257 304.53606010240037,152.13949854671955 309.7749606501311,154.3993262918666 324.94235915504396,160.95902930013835 336.4673647531308,165.84181338734925" />
<edge from="4040435540" to="61333464" id="4040435540to61333464" numLanes="1" shape="487.3548687971779,229.69350872840732 487.3548687971779,229.69350872840732 479.30275414232165,226.29167975578457 437.55894274660386,208.61918106582016 406.4987444160506,195.47275410220027 395.18218626850285,190.6847272515297 336.4673647531308,165.84181338734925" />
<edge from="4330581241" to="61324628" id="4330581241to61324628" numLanes="1" shape="-74.93670172779821,-201.37881278898567 -74.93670172779821,-201.37881278898567 -64.22296968725277,-227.06531384028494 -62.25439266778994,-231.78053764346987" />
<edge from="5456384052" to="5456384053" id="5456384052to5456384053" numLanes="1" shape="-395.7512153444113,-331.51890632975847 -402.66912542143837,-315.3367890557274" />
<edge from="5456384053" to="5456384052" id="5456384053to5456384052" numLanes="1" shape="-402.66912542143837,-315.3367890557274 -395.7512153444113,-331.51890632975847" />
<edge from="5456384053" to="5456384054" id="5456384053to5456384054" numLanes="1" shape="-402.66912542143837,-315.3367890557274 -456.15884010354057,-338.20264358539134" />
<edge from="5456384053" to="5456384059" id="5456384053to5456384059" numLanes="1" shape="-402.66912542143837,-315.3367890557274 -410.1560997572378,-297.8405946586281" />
<edge from="5456384054" to="5456384053" id="5456384054to5456384053" numLanes="1" shape="-456.15884010354057,-338.20264358539134 -402.66912542143837,-315.3367890557274" />
<edge from="5456384054" to="5456384056" id="5456384054to5456384056" numLanes="1" shape="-456.15884010354057,-338.20264358539134 -459.261079921911,-337.68146166577935 -470.5686981503968,-342.0461660483852 -470.5686981503968,-342.0461660483852" />
<edge from="5456384054" to="5456384058" id="5456384054to5456384058" numLanes="1" shape="-456.15884010354057,-338.20264358539134 -456.15884010354057,-338.20264358539134 -457.23834733339027,-340.8648198256269 -468.9890779884299,-345.8185638124123" />
<edge from="5456384056" to="5456384054" id="5456384056to5456384054" numLanes="1" shape="-470.5686981503968,-342.0461660483852 -470.5686981503968,-342.0461660483852 -459.261079921911,-337.68146166577935 -456.15884010354057,-338.20264358539134" />
<edge from="5456384056" to="5456384058" id="5456384056to5456384058" numLanes="1" shape="-470.5686981503968,-342.0461660483852 -468.9890779884299,-345.8185638124123" />
<edge from="5456384056" to="5456384066" id="5456384056to5456384066" numLanes="1" shape="-470.5686981503968,-342.0461660483852 -481.0099566242425,-317.0546058593318 -497.8858953146264,-276.68164103105664 -497.8858953146264,-276.68164103105664" />
<edge from="5456384058" to="5456384056" id="5456384058to5456384056" numLanes="1" shape="-468.9890779884299,-345.8185638124123 -470.5686981503968,-342.0461660483852" />
<edge from="5456384058" to="5456384054" id="5456384058to5456384054" numLanes="1" shape="-468.9890779884299,-345.8185638124123 -457.23834733339027,-340.8648198256269 -456.15884010354057,-338.20264358539134 -456.15884010354057,-338.20264358539134" />
<edge from="5456384058" to="6154480511" id="5456384058to6154480511" numLanes="1" shape="-468.9890779884299,-345.8185638124123 -451.93406028999016,-386.62919744849205 -449.34439407655736,-390.2154629006982 -445.96376502205385,-392.1435197722167 -444.88950327271596,-392.3589792670682 -443.61043722735485,-392.62394854798913 -439.7087060784688,-391.809345995076 -426.4748702534707,-386.2033440694213 -426.4748702534707,-386.2033440694213" />
<edge from="5456384059" to="5456384053" id="5456384059to5456384053" numLanes="1" shape="-410.1560997572378,-297.8405946586281 -402.66912542143837,-315.3367890557274" />
<edge from="5456384059" to="5456384062" id="5456384059to5456384062" numLanes="1" shape="-410.1560997572378,-297.8405946586281 -416.8713365584845,-282.1301359022036" />
<edge from="5456384062" to="5456384059" id="5456384062to5456384059" numLanes="1" shape="-416.8713365584845,-282.1301359022036 -410.1560997572378,-297.8405946586281" />
<edge from="5456384062" to="5456384063" id="5456384062to5456384063" numLanes="1" shape="-416.8713365584845,-282.1301359022036 -423.55579403729644,-266.5093184588477" />
<edge from="5456384063" to="5456384062" id="5456384063to5456384062" numLanes="1" shape="-423.55579403729644,-266.5093184588477 -416.8713365584845,-282.1301359022036" />
<edge from="5456384063" to="5456384065" id="5456384063to5456384065" numLanes="1" shape="-423.55579403729644,-266.5093184588477 -481.36393160175066,-290.72371176816523 -489.12547382491175,-272.3428522190079 -489.12547382491175,-272.3428522190079" />
<edge from="5456384065" to="5456384063" id="5456384065to5456384063" numLanes="1" shape="-489.12547382491175,-272.3428522190079 -489.12547382491175,-272.3428522190079 -481.36393160175066,-290.72371176816523 -423.55579403729644,-266.5093184588477" />
<edge from="5456384065" to="5456384066" id="5456384065to5456384066" numLanes="1" shape="-489.12547382491175,-272.3428522190079 -497.8858953146264,-276.68164103105664" />
<edge from="5456384066" to="61283218" id="5456384066to61283218" numLanes="1" shape="-497.8858953146264,-276.68164103105664 -497.8858953146264,-276.68164103105664 -501.2547987108119,-268.6205303706229 -504.1180306295864,-261.77192624937743" />
<edge from="5456384066" to="5456384056" id="5456384066to5456384056" numLanes="1" shape="-497.8858953146264,-276.68164103105664 -497.8858953146264,-276.68164103105664 -481.0099566242425,-317.0546058593318 -470.5686981503968,-342.0461660483852" />
<edge from="5456384066" to="5456384065" id="5456384066to5456384065" numLanes="1" shape="-497.8858953146264,-276.68164103105664 -489.12547382491175,-272.3428522190079" />
<edge from="5458830467" to="5458830475" id="5458830467to5458830475" numLanes="1" shape="89.42369432159467,222.82981922198087 97.6665831831051,216.24879621434957 113.57293826603564,202.64551775623113 130.63076452945825,213.0137171531096 117.76021746190963,222.40879177860916 117.76021746190963,222.40879177860916" />
<edge from="5458830474" to="5458830475" id="5458830474to5458830475" numLanes="1" shape="102.42963612789754,234.63120659068227 117.76021746190963,222.40879177860916" />
<edge from="5458830475" to="5458830467" id="5458830475to5458830467" numLanes="1" shape="117.76021746190963,222.40879177860916 117.76021746190963,222.40879177860916 130.63076452945825,213.0137171531096 113.57293826603564,202.64551775623113 97.6665831831051,216.24879621434957 89.42369432159467,222.82981922198087" />
<edge from="5458830475" to="5458830474" id="5458830475to5458830474" numLanes="1" shape="117.76021746190963,222.40879177860916 102.42963612789754,234.63120659068227" />
<edge from="5458830475" to="5458830476" id="5458830475to5458830476" numLanes="1" shape="117.76021746190963,222.40879177860916 125.65254283393733,233.691877938807 132.06728627311531,242.86697500851005 132.06728627311531,242.86697500851005" />
<edge from="5458830476" to="5458830475" id="5458830476to5458830475" numLanes="1" shape="132.06728627311531,242.86697500851005 132.06728627311531,242.86697500851005 125.65254283393733,233.691877938807 117.76021746190963,222.40879177860916" />
<edge from="5458830476" to="8324159322" id="5458830476to8324159322" numLanes="1" shape="132.06728627311531,242.86697500851005 155.94811192306224,222.48944146651775 164.18807124299929,215.45302006974816 170.1659367076354,210.2501370701939 179.66959328990197,201.9937040079385 179.66959328990197,201.9937040079385" />
<edge from="5458830603" to="5458830608" id="5458830603to5458830608" numLanes="1" shape="-196.8805267245043,86.73076778836548 -209.1549168882193,79.22291477397084" />
<edge from="5458830603" to="9291062356" id="5458830603to9291062356" numLanes="1" shape="-196.8805267245043,86.73076778836548 -155.3265505215968,111.62648599222302 -100.74807131610578,141.05638577695936 -65.21771360287676,160.97913436498493 -65.21771360287676,160.97913436498493" />
<edge from="5458830603" to="5458830606" id="5458830603to5458830606" numLanes="1" shape="-196.8805267245043,86.73076778836548 -201.1614486334729,91.56983047444373 -211.1650567826582,102.2613564832136 -211.1650567826582,102.2613564832136" />
<edge from="5458830605" to="5458830609" id="5458830605to5458830609" numLanes="1" shape="-222.55275896412786,95.6205067904666 -257.6243600483285,127.30918090511113" />
<edge from="5458830605" to="5458830608" id="5458830605to5458830608" numLanes="1" shape="-222.55275896412786,95.6205067904666 -221.60506730980705,91.95266492664814 -213.98679427587194,84.10892969183624 -209.1549168882193,79.22291477397084 -209.1549168882193,79.22291477397084" />
<edge from="5458830605" to="5458830611" id="5458830605to5458830611" numLanes="1" shape="-222.55275896412786,95.6205067904666 -233.81083112978376,83.2209418155253 -273.88060353603214,117.7331825196743 -273.88060353603214,117.7331825196743" />
<edge from="5458830606" to="5458830603" id="5458830606to5458830603" numLanes="1" shape="-211.1650567826582,102.2613564832136 -211.1650567826582,102.2613564832136 -201.1614486334729,91.56983047444373 -196.8805267245043,86.73076778836548" />
<edge from="5458830606" to="5458830609" id="5458830606to5458830609" numLanes="1" shape="-211.1650567826582,102.2613564832136 -248.30486441712128,132.95663902442902 -257.6243600483285,127.30918090511113 -257.6243600483285,127.30918090511113" />
<edge from="5458830608" to="61321580" id="5458830608to61321580" numLanes="1" shape="-209.1549168882193,79.22291477397084 -209.1549168882193,79.22291477397084 -225.57040843827417,69.2062944592908 -233.25191407708917,63.818330593407154" />
<edge from="5458830608" to="5458830603" id="5458830608to5458830603" numLanes="1" shape="-209.1549168882193,79.22291477397084 -196.8805267245043,86.73076778836548" />