<nodes>
<node id="61283218" x="-504.1180306295864" y="-261.77192624937743" />
<node id="61283269" x="201.79098003474064" y="182.77081550750881" />
<node id="61283311" x="28.468028729665093" y="-204.1303927199915" />
<node id="61317286" x="379.151652296423" y="290.9673966700211" />
<node id="61317287" x="300.79619732988067" y="243.51973921153694" />
<node id="61317302" x="-597.8483747694409" y="-320.57412691786885" />
<node id="61321312" x="344.73623600730207" y="-38.47109668981284" />
<node id="61321580" x="-233.25191407708917" y="63.818330593407154" />
<node id="61324628" x="-62.25439266778994" y="-231.78053764346987" />
<node id="61324632" x="-161.43466738064308" y="-273.85393565893173" />
<node id="61324673" x="165.83855002798373" y="-113.72960009612143" />
<node id="61327823" x="176.93165740848053" y="-140.76948106009513" />
<node id="61333464" x="336.4673647531308" y="165.84181338734925" />
<node id="267542180" x="359.7582369892625" y="278.7561509218067" />
<node id="545574528" x="399.1726924122777" y="242.31934663373977" />
<node id="621117489" x="485.7979531318415" y="358.6416828799993" />
<node id="1705822880" x="-390.4472331587458" y="-34.71783787943423" />
<node id="1830061703" x="259.9096673737513" y="37.57315266504884" />
<node id="2446018253" x="299.1972988577327" y="-57.58273360040039" />
<node id="2697095090" x="-167.4835184676922" y="-4.906006440520287" />
<node id="3620910929" x="600.7354121578392" y="437.19125482439995" />
<node id="3726719016" x="267.8534655235708" y="-70.81052013300359" />
<node id="3726719625" x="222.57954753318336" y="-89.85043274611235" />
<node id="3726719630" x="135.09560209268238" y="-109.91620619595051" />
<node id="4013000093" x="497.60108231019694" y="328.29598441161215" />
<node id="4040435533" x="255.04426906595472" y="130.7478104652837" />
<node id="4040435540" x="487.3548687971779" y="229.69350872840732" />
<node id="4330581241" x="-74.93670172779821" y="-201.37881278898567" />
<node id="5456384052" x="-395.7512153444113" y="-331.51890632975847" />
<node id="5456384053" x="-402.66912542143837" y="-315.3367890557274" />
<node id="5456384054" x="-456.15884010354057" y="-338.20264358539134" />
<node id="5456384056" x="-470.5686981503968" y="-342.0461660483852" />
<node id="5456384058" x="-468.9890779884299" y="-345.8185638124123" />
<node id="5456384059" x="-410.1560997572378" y="-297.8405946586281" />
<node id="5456384062" x="-416.8713365584845" y="-282.1301359022036" />
<node id="5456384063" x="-423.55579403729644" y="-266.5093184588477" />
<node id="5456384065" x="-489.12547382491175" y="-272.3428522190079" />
<node id="5456384066" x="-497.8858953146264" y="-276.68164103105664" />
<node id="5458830467" x="89.42369432159467" y="222.82981922198087" />
<node id="5458830474" x="102.42963612789754" y="234.63120659068227" />
<node id="5458830475" x="117.76021746190963" y="222.40879177860916" />
<node id="5458830476" x="132.06728627311531" y="242.86697500851005" />
<node id="5458830603" x="-196.8805267245043" y="86.73076778836548" />
<node id="5458830605" x="-222.55275896412786" y="95.6205067904666" />
<node id="5458830606" x="-211.1650567826582" y="102.2613564832136" />
<node id="5458830608" x="-209.1549168882193" y="79.22291477397084" />
<node id="5458830609" x="-257.6243600483285" y="127.30918090511113" />
<node id="5458830610" x="-287.2684694416821" y="109.51965232100338" />
<node id="5458830611" x="-273.88060353603214" y="117.7331825196743" />
<node id="5492841607" x="-398.3313419945771" y="-194.91118216048926" />
<node id="5492841608" x="-408.33919018146116" y="-179.71929752174765" />
<node id="6154480511" x="-426.4748702534707" y="-386.2033440694213" />
<node id="6154480513" x="-416.5848082094453" y="-405.5034172423184" />
<node id="6290254763" x="-521.1444930428988" y="-272.45057299826294" />
<node id="6756031135" x="-345.3944089001743" y="-7.6874852711334825" />
<node id="6756031138" x="-355.4170436016284" y="-60.09504477865994" />
<node id="7069072767" x="448.4641472271178" y="334.97180798090994" />
<node id="7069072768" x="443.4356986490311" y="342.9288332024589" />
<node id="7069072770" x="379.7515331878676" y="345.78547659609467" />
<node id="7071581206" x="1.446727792848833" y="-215.46368966437876" />
<node id="7071581207" x="12.719758382299915" y="-242.20829227007926" />
<node id="7130119143" x="-205.16601792542497" y="-74.208217471838" />
<node id="7130119150" x="-220.082402824366" y="-83.5730132162571" />
<node id="7672953215" x="-298.6640766451601" y="20.879447798244655" />
<node id="7672953217" x="-259.2784695001901" y="-14.993770541623235" />
<node id="7862116651" x="219.64254110096954" y="193.91965755354613" />
<node id="8044609893" x="435.8934076410951" y="270.5151503505185" />
<node id="8324159322" x="179.66959328990197" y="201.9937040079385" />
<node id="8324159333" x="225.66622570971958" y="232.03757990058511" />
<node id="8859547395" x="-562.4239948828472" y="-426.61740936152637" />
<node id="8859547396" x="-580.6159537042258" y="-433.08932167384773" />
<node id="8859547397" x="-590.8221186998999" y="-403.60341910272837" />
<node id="8859547399" x="-558.6073909451952" y="-438.23406180832535" />
<node id="9070976122" x="-236.81145422329428" y="-326.08072208985686" />
<node id="9070976123" x="-244.27305209229235" y="-307.87424765434116" />
<node id="9291062355" x="-101.08507236558944" y="189.48666853830218" />
<node id="9291062356" x="-65.21771360287676" y="160.97913436498493" />
<node id="9632096349" x="136.69016074069077" y="140.59816615656018" />
<node id="9632096352" x="156.56363694614265" y="153.1969959223643" />
<node id="9632096355" x="124.5159178719623" y="132.7872858447954" />
<node id="9632096357" x="141.23399946349673" y="98.6197767984122" />
<node id="9632096437" x="-136.37353489821544" y="-18.529771712608635" />
<node id="9632096438" x="-126.43678631290095" y="-32.60839251987636" />
<node id="9632096439" x="-130.52677820029203" y="-27.374097156338394" />
<node id="9661124341" x="38.5552719142288" y="79.50772438850254" />
<node id="9661124346" x="8.286109638982452" y="96.80995167605579" />
</nodes>