<connections>
<connection from="5456384066to61283218" to="61283218to5456384066" />
<connection from="5456384066to61283218" to="61283218to5492841607" />
<connection from="5456384066to61283218" to="61283218to6290254763" />
<connection from="5492841607to61283218" to="61283218to5456384066" />
<connection from="5492841607to61283218" to="61283218to5492841607" />
<connection from="5492841607to61283218" to="61283218to6290254763" />
<connection from="6290254763to61283218" to="61283218to5456384066" />
<connection from="6290254763to61283218" to="61283218to5492841607" />
<connection from="6290254763to61283218" to="61283218to6290254763" />
<connection from="4040435533to61283269" to="61283269to4040435533" />
<connection from="4040435533to61283269" to="61283269to7862116651" />
<connection from="4040435533to61283269" to="61283269to9632096352" />
<connection from="4040435533to61283269" to="61283269to8324159322" />
<connection from="7862116651to61283269" to="61283269to4040435533" />
<connection from="7862116651to61283269" to="61283269to7862116651" />
<connection from="7862116651to61283269" to="61283269to9632096352" />
<connection from="7862116651to61283269" to="61283269to8324159322" />
<connection from="9632096352to61283269" to="61283269to4040435533" />
<connection from="9632096352to61283269" to="61283269to7862116651" />
<connection from="9632096352to61283269" to="61283269to9632096352" />
<connection from="9632096352to61283269" to="61283269to8324159322" />
<connection from="8324159322to61283269" to="61283269to4040435533" />
<connection from="8324159322to61283269" to="61283269to7862116651" />
<connection from="8324159322to61283269" to="61283269to9632096352" />
<connection from="8324159322to61283269" to="61283269to8324159322" />
<connection from="7071581206to61283311" to="61283311to7071581206" />
<connection from="7071581206to61283311" to="61283311to61327823" />
<connection from="61327823to61283311" to="61283311to7071581206" />
<connection from="61327823to61283311" to="61283311to61327823" />
<connection from="267542180to61317286" to="61317286to267542180" />
<connection from="267542180to61317286" to="61317286to7069072767" />
<connection from="267542180to61317286" to="61317286to545574528" />
<connection from="7069072767to61317286" to="61317286to267542180" />
<connection from="7069072767to61317286" to="61317286to7069072767" />
<connection from="7069072767to61317286" to="61317286to545574528" />
<connection from="545574528to61317286" to="61317286to267542180" />
<connection from="545574528to61317286" to="61317286to7069072767" />
<connection from="545574528to61317286" to="61317286to545574528" />
<connection from="267542180to61317287" to="61317287to267542180" />
<connection from="267542180to61317287" to="61317287to61333464" />
<connection from="267542180to61317287" to="61317287to7862116651" />
<connection from="61333464to61317287" to="61317287to267542180" />
<connection from="61333464to61317287" to="61317287to61333464" />
<connection from="61333464to61317287" to="61317287to7862116651" />
<connection from="7862116651to61317287" to="61317287to267542180" />
<connection from="7862116651to61317287" to="61317287to61333464" />
<connection from="7862116651to61317287" to="61317287to7862116651" />
<connection from="8859547395to61317302" to="61317302to8859547395" />
<connection from="8859547395to61317302" to="61317302to6290254763" />
<connection from="6290254763to61317302" to="61317302to8859547395" />
<connection from="6290254763to61317302" to="61317302to6290254763" />
<connection from="2446018253to61321312" to="61321312to2446018253" />
<connection from="2446018253to61321312" to="61321312to4040435533" />
<connection from="4040435533to61321312" to="61321312to2446018253" />
<connection from="4040435533to61321312" to="61321312to4040435533" />
<connection from="5458830610to61321580" to="61321580to5458830610" />
<connection from="5458830610to61321580" to="61321580to2697095090" />
<connection from="5458830610to61321580" to="61321580to5458830608" />
<connection from="5458830610to61321580" to="61321580to7672953215" />
<connection from="2697095090to61321580" to="61321580to5458830610" />
<connection from="2697095090to61321580" to="61321580to2697095090" />
<connection from="2697095090to61321580" to="61321580to5458830608" />
<connection from="2697095090to61321580" to="61321580to7672953215" />
<connection from="5458830608to61321580" to="61321580to5458830610" />
<connection from="5458830608to61321580" to="61321580to2697095090" />
<connection from="5458830608to61321580" to="61321580to5458830608" />
<connection from="5458830608to61321580" to="61321580to7672953215" />
<connection from="7672953215to61321580" to="61321580to5458830610" />
<connection from="7672953215to61321580" to="61321580to2697095090" />
<connection from="7672953215to61321580" to="61321580to5458830608" />
<connection from="7672953215to61321580" to="61321580to7672953215" />
<connection from="61324632to61324628" to="61324628to61324632" />
<connection from="61324632to61324628" to="61324628to4330581241" />
<connection from="61324632to61324628" to="61324628to7071581206" />
<connection from="4330581241to61324628" to="61324628to61324632" />
<connection from="4330581241to61324628" to="61324628to4330581241" />
<connection from="4330581241to61324628" to="61324628to7071581206" />
<connection from="7071581206to61324628" to="61324628to61324632" />
<connection from="7071581206to61324628" to="61324628to4330581241" />
<connection from="7071581206to61324628" to="61324628to7071581206" />
<connection from="61324628to61324632" to="61324632to61324628" />
<connection from="61324628to61324632" to="61324632to9070976123" />
<connection from="9070976123to61324632" to="61324632to61324628" />
<connection from="9070976123to61324632" to="61324632to9070976123" />
<connection from="61327823to61324673" to="61324673to61327823" />
<connection from="61327823to61324673" to="61324673to3726719625" />
<connection from="61327823to61324673" to="61324673to3726719630" />
<connection from="3726719625to61324673" to="61324673to61327823" />
<connection from="3726719625to61324673" to="61324673to3726719625" />
<connection from="3726719625to61324673" to="61324673to3726719630" />
<connection from="3726719630to61324673" to="61324673to61327823" />
<connection from="3726719630to61324673" to="61324673to3726719625" />
<connection from="3726719630to61324673" to="61324673to3726719630" />
<connection from="61324673to61327823" to="61327823to61324673" />
<connection from="61324673to61327823" to="61327823to61283311" />
<connection from="61283311to61327823" to="61327823to61324673" />
<connection from="61283311to61327823" to="61327823to61283311" />
<connection from="61317287to61333464" to="61333464to61317287" />
<connection from="61317287to61333464" to="61333464to4040435540" />
<connection from="61317287to61333464" to="61333464to4040435533" />
<connection from="4040435540to61333464" to="61333464to61317287" />
<connection from="4040435540to61333464" to="61333464to4040435540" />
<connection from="4040435540to61333464" to="61333464to4040435533" />
<connection from="4040435533to61333464" to="61333464to61317287" />
<connection from="4040435533to61333464" to="61333464to4040435540" />
<connection from="4040435533to61333464" to="61333464to4040435533" />
<connection from="61317286to267542180" to="267542180to61317286" />
<connection from="61317286to267542180" to="267542180to61317287" />
<connection from="61317286to267542180" to="267542180to545574528" />
<connection from="61317287to267542180" to="267542180to61317286" />
<connection from="61317287to267542180" to="267542180to61317287" />
<connection from="61317287to267542180" to="267542180to545574528" />
<connection from="545574528to267542180" to="267542180to61317286" />
<connection from="545574528to267542180" to="267542180to61317287" />
<connection from="545574528to267542180" to="267542180to545574528" />
<connection from="267542180to545574528" to="545574528to267542180" />
<connection from="267542180to545574528" to="545574528to8044609893" />
<connection from="267542180to545574528" to="545574528to61317286" />
<connection from="8044609893to545574528" to="545574528to267542180" />
<connection from="8044609893to545574528" to="545574528to8044609893" />
<connection from="8044609893to545574528" to="545574528to61317286" />
<connection from="61317286to545574528" to="545574528to267542180" />
<connection from="61317286to545574528" to="545574528to8044609893" />
<connection from="61317286to545574528" to="545574528to61317286" />
<connection from="7069072767to621117489" to="621117489to7069072767" />
<connection from="7069072767to621117489" to="621117489to3620910929" />
<connection from="7069072767to621117489" to="621117489to4013000093" />
<connection from="3620910929to621117489" to="621117489to7069072767" />
<connection from="3620910929to621117489" to="621117489to3620910929" />
<connection from="3620910929to621117489" to="621117489to4013000093" />
<connection from="4013000093to621117489" to="621117489to7069072767" />
<connection from="4013000093to621117489" to="621117489to3620910929" />
<connection from="4013000093to621117489" to="621117489to4013000093" />
<connection from="6756031135to1705822880" to="1705822880to6756031135" />
<connection from="2446018253to1830061703" to="1830061703to2446018253" />
<connection from="61321312to2446018253" to="2446018253to61321312" />
<connection from="61321312to2446018253" to="2446018253to1830061703" />
<connection from="61321312to2446018253" to="2446018253to3726719016" />
<connection from="1830061703to2446018253" to="2446018253to61321312" />
<connection from="1830061703to2446018253" to="2446018253to1830061703" />
<connection from="1830061703to2446018253" to="2446018253to3726719016" />
<connection from="3726719016to2446018253" to="2446018253to61321312" />
<connection from="3726719016to2446018253" to="2446018253to1830061703" />
<connection from="3726719016to2446018253" to="2446018253to3726719016" />
<connection from="61321580to2697095090" to="2697095090to61321580" />
<connection from="61321580to2697095090" to="2697095090to9632096437" />
<connection from="9632096437to2697095090" to="2697095090to61321580" />
<connection from="9632096437to2697095090" to="2697095090to9632096437" />
<connection from="621117489to3620910929" to="3620910929to621117489" />
<connection from="621117489to3620910929" to="3620910929to7069072768" />
<connection from="7069072768to3620910929" to="3620910929to621117489" />
<connection from="7069072768to3620910929" to="3620910929to7069072768" />
<connection from="2446018253to3726719016" to="3726719016to2446018253" />
<connection from="2446018253to3726719016" to="3726719016to3726719625" />
<connection from="3726719625to3726719016" to="3726719016to2446018253" />
<connection from="3726719625to3726719016" to="3726719016to3726719625" />
<connection from="61324673to3726719625" to="3726719625to61324673" />
<connection from="61324673to3726719625" to="3726719625to3726719016" />
<connection from="3726719016to3726719625" to="3726719625to61324673" />
<connection from="3726719016to3726719625" to="3726719625to3726719016" />
<connection from="61324673to3726719630" to="3726719630to61324673" />
<connection from="621117489to4013000093" to="4013000093to621117489" />
<connection from="61283269to4040435533" to="4040435533to61283269" />
<connection from="61283269to4040435533" to="4040435533to61321312" />
<connection from="61283269to4040435533" to="4040435533to61333464" />
<connection from="61321312to4040435533" to="4040435533to61283269" />
<connection from="61321312to4040435533" to="4040435533to61321312" />
<connection from="61321312to4040435533" to="4040435533to61333464" />
<connection from="61333464to4040435533" to="4040435533to61283269" />
<connection from="61333464to4040435533" to="4040435533to61321312" />
<connection from="61333464to4040435533" to="4040435533to61333464" />
<connection from="61333464to4040435540" to="4040435540to61333464" />
<connection from="61324628to4330581241" to="4330581241to61324628" />
<connection from="5456384053to5456384052" to="5456384052to5456384053" />
<connection from="5456384052to5456384053" to="5456384053to5456384052" />
<connection from="5456384052to5456384053" to="5456384053to5456384054" />
<connection from="5456384052to5456384053" to="5456384053to5456384059" />
<connection from="5456384054to5456384053" to="5456384053to5456384052" />
<connection from="5456384054to5456384053" to="5456384053to5456384054" />
<connection from="5456384054to5456384053" to="5456384053to5456384059" />
<connection from="5456384059to5456384053" to="5456384053to5456384052" />
<connection from="5456384059to5456384053" to="5456384053to5456384054" />
<connection from="5456384059to5456384053" to="5456384053to5456384059" />
<connection from="5456384053to5456384054" to="5456384054to5456384053" />
<connection from="5456384053to5456384054" to="5456384054to5456384056" />
<connection from="5456384053to5456384054" to="5456384054to5456384058" />
<connection from="5456384056to5456384054" to="5456384054to5456384053" />
<connection from="5456384056to5456384054" to="5456384054to5456384056" />
<connection from="5456384056to5456384054" to="5456384054to5456384058" />
<connection from="5456384058to5456384054" to="5456384054to5456384053" />
<connection from="5456384058to5456384054" to="5456384054to5456384056" />
<connection from="5456384058to5456384054" to="5456384054to5456384058" />
<connection from="5456384054to5456384056" to="5456384056to5456384054" />
<connection from="5456384054to5456384056" to="5456384056to5456384058" />
<connection from="5456384054to5456384056" to="5456384056to5456384066" />
<connection from="5456384058to5456384056" to="5456384056to5456384054" />
<connection from="5456384058to5456384056" to="5456384056to5456384058" />
<connection from="5456384058to5456384056" to="5456384056to5456384066" />
<connection from="5456384066to5456384056" to="5456384056to5456384054" />
<connection from="5456384066to5456384056" to="5456384056to5456384058" />
<connection from="5456384066to5456384056" to="5456384056to5456384066" />
<connection from="5456384056to5456384058" to="5456384058to5456384056" />
<connection from="5456384056to5456384058" to="5456384058to5456384054" />
<connection from="5456384056to5456384058" to="5456384058to6154480511" />
<connection from="5456384054to5456384058" to="5456384058to5456384056" />
<connection from="5456384054to5456384058" to="5456384058to5456384054" />
<connection from="5456384054to5456384058" to="5456384058to6154480511" />
<connection from="6154480511to5456384058" to="5456384058to5456384056" />
<connection from="6154480511to5456384058" to="5456384058to5456384054" />
<connection from="6154480511to5456384058" to="5456384058to6154480511" />
<connection from="5456384053to5456384059" to="5456384059to5456384053" />
<connection from="5456384053to5456384059" to="5456384059to5456384062" />
<connection from="5456384062to5456384059" to="5456384059to5456384053" />
<connection from="5456384062to5456384059" to="5456384059to5456384062" />
<connection from="5456384059to5456384062" to="5456384062to5456384059" />
<connection from="5456384059to5456384062" to="5456384062to5456384063" />
<connection from="5456384063to5456384062" to="5456384062to5456384059" />
<connection from="5456384063to5456384062" to="5456384062to5456384063" />
<connection from="5456384062to5456384063" to="5456384063to5456384062" />
<connection from="5456384062to5456384063" to="5456384063to5456384065" />
<connection from="5456384065to5456384063" to="5456384063to5456384062" />
<connection from="5456384065to5456384063" to="5456384063to5456384065" />
<connection from="5456384063to5456384065" to="5456384065to5456384063" />
<connection from="5456384063to5456384065" to="5456384065to5456384066" />
<connection from="5456384066to5456384065" to="5456384065to5456384063" />
<connection from="5456384066to5456384065" to="5456384065to5456384066" />
<connection from="61283218to5456384066" to="5456384066to61283218" />
<connection from="61283218to5456384066" to="5456384066to5456384056" />
<connection from="61283218to5456384066" to="5456384066to5456384065" />
<connection from="5456384056to5456384066" to="5456384066to61283218" />
<connection from="5456384056to5456384066" to="5456384066to5456384056" />
<connection from="5456384056to5456384066" to="5456384066to5456384065" />
<connection from="5456384065to5456384066" to="5456384066to61283218" />
<connection from="5456384065to5456384066" to="5456384066to5456384056" />
<connection from="5456384065to5456384066" to="5456384066to5456384065" />
<connection from="5458830475to5458830467" to="5458830467to5458830475" />
<connection from="5458830475to5458830474" to="5458830474to5458830475" />
<connection from="5458830467to5458830475" to="5458830475to5458830467" />
<connection from="5458830467to5458830475" to="5458830475to5458830474" />
<connection from="5458830467to5458830475" to="5458830475to5458830476" />
<connection from="5458830474to5458830475" to="5458830475to5458830467" />
<connection from="5458830474to5458830475" to="5458830475to5458830474" />
<connection from="5458830474to5458830475" to="5458830475to5458830476" />
<connection from="5458830476to5458830475" to="5458830475to5458830467" />
<connection from="5458830476to5458830475" to="5458830475to5458830474" />
<connection from="5458830476to5458830475" to="5458830475to5458830476" />
<connection from="5458830475to5458830476" to="5458830476to5458830475" />
<connection from="5458830475to5458830476" to="5458830476to8324159322" />
<connection from="8324159322to5458830476" to="5458830476to5458830475" />
<connection from="8324159322to5458830476" to="5458830476to8324159322" />
<connection from="5458830608to5458830603" to="5458830603to5458830608" />
<connection from="5458830608to5458830603" to="5458830603to9291062356" />
<connection from="5458830608to5458830603" to="5458830603to5458830606" />
<connection from="9291062356to5458830603" to="5458830603to5458830608" />
<connection from="9291062356to5458830603" to="5458830603to9291062356" />
<connection from="9291062356to5458830603" to="5458830603to5458830606" />
<connection from="5458830606to5458830603" to="5458830603to5458830608" />
<connection from="5458830606to5458830603" to="5458830603to9291062356" />
<connection from="5458830606to5458830603" to="5458830603to5458830606" />
<connection from="5458830609to5458830605" to="5458830605to5458830609" />
<connection from="5458830609to5458830605" to="5458830605to5458830608" />
<connection from="5458830609to5458830605" to="5458830605to5458830611" />
<connection from="5458830608to5458830605" to="5458830605to5458830609" />
<connection from="5458830608to5458830605" to="5458830605to5458830608" />
<connection from="5458830608to5458830605" to="5458830605to5458830611" />
<connection from="5458830611to5458830605" to="5458830605to5458830609" />
<connection from="5458830611to5458830605" to="5458830605to5458830608" />
<connection from="5458830611to5458830605" to="5458830605to5458830611" />
<connection from="5458830603to5458830606" to="5458830606to5458830603" />
<connection from="5458830603to5458830606" to="5458830606to5458830609" />
<connection from="5458830609to5458830606" to="5458830606to5458830603" />
<connection from="5458830609to5458830606" to="5458830606to5458830609" />
<connection from="61321580to5458830608" to="5458830608to61321580" />
<connection from="61321580to5458830608" to="5458830608to5458830603" />
<connection from="61321580to5458830608" to="5458830608to5458830605" />
<connection from="5458830603to5458830608" to="5458830608to61321580" />
<connection from="5458830603to5458830608" to="5458830608to5458830603" />
<connection from="5458830603to5458830608" to="5458830608to5458830605" />
<connection from="5458830605to5458830608" to="5458830608to61321580" />
<connection from="5458830605to5458830608" to="5458830608to5458830603" />
<connection from="5458830605to5458830608" to="5458830608to5458830605" />
<connection from="5458830605to5458830609" to="5458830609to5458830605" />
<connection from="5458830605to5458830609" to="5458830609to5458830606" />
<connection from="5458830605to5458830609" to="5458830609to5458830611" />
<connection from="5458830606to5458830609" to="5458830609to5458830605" />
<connection from="5458830606to5458830609" to="5458830609to5458830606" />
<connection from="5458830606to5458830609" to="5458830609to5458830611" />
<connection from="5458830611to5458830609" to="5458830609to5458830605" />
<connection from="5458830611to5458830609" to="5458830609to5458830606" />
<connection from="5458830611to5458830609" to="5458830609to5458830611" />
<connection from="61321580to5458830610" to="5458830610to61321580" />
<connection from="61321580to5458830610" to="5458830610to5458830611" />
<connection from="5458830611to5458830610" to="5458830610to61321580" />
<connection from="5458830611to5458830610" to="5458830610to5458830611" />
<connection from="5458830605to5458830611" to="5458830611to5458830605" />
<connection from="5458830605to5458830611" to="5458830611to5458830609" />
<connection from="5458830605to5458830611" to="5458830611to5458830610" />
<connection from="5458830609to5458830611" to="5458830611to5458830605" />
<connection from="5458830609to5458830611" to="5458830611to5458830609" />
<connection from="5458830609to5458830611" to="5458830611to5458830610" />
<connection from="5458830610to5458830611" to="5458830611to5458830605" />
<connection from="5458830610to5458830611" to="5458830611to5458830609" />
<connection from="5458830610to5458830611" to="5458830611to5458830610" />
<connection from="61283218to5492841607" to="5492841607to61283218" />
<connection from="61283218to5492841607" to="5492841607to5492841608" />
<connection from="61283218to5492841607" to="5492841607to7130119150" />
<connection from="5492841608to5492841607" to="5492841607to61283218" />
<connection from="5492841608to5492841607" to="5492841607to5492841608" />
<connection from="5492841608to5492841607" to="5492841607to7130119150" />
<connection from="7130119150to5492841607" to="5492841607to61283218" />
<connection from="7130119150to5492841607" to="5492841607to5492841608" />
<connection from="7130119150to5492841607" to="5492841607to7130119150" />
<connection from="5492841607to5492841608" to="5492841608to5492841607" />
<connection from="5456384058to6154480511" to="6154480511to5456384058" />
<connection from="5456384058to6154480511" to="6154480511to9070976123" />
<connection from="5456384058to6154480511" to="6154480511to6154480513" />
<connection from="9070976123to6154480511" to="6154480511to5456384058" />
<connection from="9070976123to6154480511" to="6154480511to9070976123" />
<connection from="9070976123to6154480511" to="6154480511to6154480513" />
<connection from="6154480513to6154480511" to="6154480511to5456384058" />
<connection from="6154480513to6154480511" to="6154480511to9070976123" />
<connection from="6154480513to6154480511" to="6154480511to6154480513" />
<connection from="6154480511to6154480513" to="6154480513to6154480511" />
<connection from="61283218to6290254763" to="6290254763to61283218" />
<connection from="61283218to6290254763" to="6290254763to61317302" />
<connection from="61317302to6290254763" to="6290254763to61283218" />
<connection from="61317302to6290254763" to="6290254763to61317302" />
<connection from="1705822880to6756031135" to="6756031135to1705822880" />
<connection from="1705822880to6756031135" to="6756031135to7672953215" />
<connection from="1705822880to6756031135" to="6756031135to6756031138" />
<connection from="7672953215to6756031135" to="6756031135to1705822880" />
<connection from="7672953215to6756031135" to="6756031135to7672953215" />
<connection from="7672953215to6756031135" to="6756031135to6756031138" />
<connection from="6756031138to6756031135" to="6756031135to1705822880" />
<connection from="6756031138to6756031135" to="6756031135to7672953215" />
<connection from="6756031138to6756031135" to="6756031135to6756031138" />
<connection from="6756031135to6756031138" to="6756031138to6756031135" />
<connection from="61317286to7069072767" to="7069072767to61317286" />
<connection from="61317286to7069072767" to="7069072767to621117489" />
<connection from="61317286to7069072767" to="7069072767to7069072768" />
<connection from="621117489to7069072767" to="7069072767to61317286" />
<connection from="621117489to7069072767" to="7069072767to621117489" />
<connection from="621117489to7069072767" to="7069072767to7069072768" />
<connection from="7069072768to7069072767" to="7069072767to61317286" />
<connection from="7069072768to7069072767" to="7069072767to621117489" />
<connection from="7069072768to7069072767" to="7069072767to7069072768" />
<connection from="3620910929to7069072768" to="7069072768to3620910929" />
<connection from="3620910929to7069072768" to="7069072768to7069072767" />
<connection from="3620910929to7069072768" to="7069072768to7862116651" />
<connection from="3620910929to7069072768" to="7069072768to7069072770" />
<connection from="7069072767to7069072768" to="7069072768to3620910929" />
<connection from="7069072767to7069072768" to="7069072768to7069072767" />
<connection from="7069072767to7069072768" to="7069072768to7862116651" />
<connection from="7069072767to7069072768" to="7069072768to7069072770" />
<connection from="7862116651to7069072768" to="7069072768to3620910929" />
<connection from="7862116651to7069072768" to="7069072768to7069072767" />
<connection from="7862116651to7069072768" to="7069072768to7862116651" />
<connection from="7862116651to7069072768" to="7069072768to7069072770" />
<connection from="7069072770to7069072768" to="7069072768to3620910929" />
<connection from="7069072770to7069072768" to="7069072768to7069072767" />
<connection from="7069072770to7069072768" to="7069072768to7862116651" />
<connection from="7069072770to7069072768" to="7069072768to7069072770" />
<connection from="7069072768to7069072770" to="7069072770to7069072768" />
<connection from="61283311to7071581206" to="7071581206to61283311" />
<connection from="61283311to7071581206" to="7071581206to61324628" />
<connection from="61283311to7071581206" to="7071581206to7071581207" />
<connection from="61324628to7071581206" to="7071581206to61283311" />
<connection from="61324628to7071581206" to="7071581206to61324628" />
<connection from="61324628to7071581206" to="7071581206to7071581207" />
<connection from="7071581207to7071581206" to="7071581206to61283311" />
<connection from="7071581207to7071581206" to="7071581206to61324628" />
<connection from="7071581207to7071581206" to="7071581206to7071581207" />
<connection from="7071581206to7071581207" to="7071581207to7071581206" />
<connection from="7130119150to7130119143" to="7130119143to7130119150" />
<connection from="7130119150to7130119143" to="7130119143to9632096439" />
<connection from="9632096439to7130119143" to="7130119143to7130119150" />
<connection from="9632096439to7130119143" to="7130119143to9632096439" />
<connection from="5492841607to7130119150" to="7130119150to5492841607" />
<connection from="5492841607to7130119150" to="7130119150to7130119143" />
<connection from="7130119143to7130119150" to="7130119150to5492841607" />
<connection from="7130119143to7130119150" to="7130119150to7130119143" />
<connection from="61321580to7672953215" to="7672953215to61321580" />
<connection from="61321580to7672953215" to="7672953215to6756031135" />
<connection from="61321580to7672953215" to="7672953215to7672953217" />
<connection from="6756031135to7672953215" to="7672953215to61321580" />
<connection from="6756031135to7672953215" to="7672953215to6756031135" />
<connection from="6756031135to7672953215" to="7672953215to7672953217" />
<connection from="7672953217to7672953215" to="7672953215to61321580" />
<connection from="7672953217to7672953215" to="7672953215to6756031135" />
<connection from="7672953217to7672953215" to="7672953215to7672953217" />
<connection from="7672953215to7672953217" to="7672953217to7672953215" />
<connection from="61283269to7862116651" to="7862116651to61283269" />
<connection from="61283269to7862116651" to="7862116651to61317287" />
<connection from="61283269to7862116651" to="7862116651to7069072768" />
<connection from="61317287to7862116651" to="7862116651to61283269" />
<connection from="61317287to7862116651" to="7862116651to61317287" />
<connection from="61317287to7862116651" to="7862116651to7069072768" />
<connection from="7069072768to7862116651" to="7862116651to61283269" />
<connection from="7069072768to7862116651" to="7862116651to61317287" />
<connection from="7069072768to7862116651" to="7862116651to7069072768" />
<connection from="545574528to8044609893" to="8044609893to545574528" />
<connection from="61283269to8324159322" to="8324159322to61283269" />
<connection from="61283269to8324159322" to="8324159322to5458830476" />
<connection from="61283269to8324159322" to="8324159322to8324159333" />
<connection from="5458830476to8324159322" to="8324159322to61283269" />
<connection from="5458830476to8324159322" to="8324159322to5458830476" />
<connection from="5458830476to8324159322" to="8324159322to8324159333" />
<connection from="8324159333to8324159322" to="8324159322to61283269" />
<connection from="8324159333to8324159322" to="8324159322to5458830476" />
<connection from="8324159333to8324159322" to="8324159322to8324159333" />
<connection from="8324159322to8324159333" to="8324159333to8324159322" />
<connection from="61317302to8859547395" to="8859547395to61317302" />
<connection from="61317302to8859547395" to="8859547395to8859547396" />
<connection from="61317302to8859547395" to="8859547395to8859547399" />
<connection from="8859547396to8859547395" to="8859547395to61317302" />
<connection from="8859547396to8859547395" to="8859547395to8859547396" />
<connection from="8859547396to8859547395" to="8859547395to8859547399" />
<connection from="8859547399to8859547395" to="8859547395to61317302" />
<connection from="8859547399to8859547395" to="8859547395to8859547396" />
<connection from="8859547399to8859547395" to="8859547395to8859547399" />
<connection from="8859547395to8859547396" to="8859547396to8859547395" />
<connection from="8859547395to8859547396" to="8859547396to8859547397" />