<edges>
<edge from="58047704" to="58047707" id="58047704to58047707" numLanes="1" shape="325.50627310737036,19.31085774116218 320.7505784764653,32.728021948132664 318.12258066027425,39.46533893747255 309.2009918927215,57.50777144031599 305.8489220687188,62.60229921992868 294.14976666658185,75.62781455600634 294.14976666658185,75.62781455600634" />
<edge from="58047707" to="58047704" id="58047707to58047704" numLanes="1" shape="294.14976666658185,75.62781455600634 294.14976666658185,75.62781455600634 305.8489220687188,62.60229921992868 309.2009918927215,57.50777144031599 318.12258066027425,39.46533893747255 320.7505784764653,32.728021948132664 325.50627310737036,19.31085774116218" />
<edge from="58047707" to="2265700198" id="58047707to2265700198" numLanes="1" shape="294.14976666658185,75.62781455600634 300.38005750766024,85.14172993367538 302.16586076573003,89.78595466725528 302.6835053033428,96.34735554689541 302.6835053033428,96.34735554689541" />
<edge from="58047707" to="4231408829" id="58047707to4231408829" numLanes="1" shape="294.14976666658185,75.62781455600634 269.08797896746546,39.38781474623829 263.14965625689365,32.67296174587682 254.12153385858983,27.37672638427466 244.623827860225,25.85245451470837 236.92765490757301,27.021488377824426 172.799365524319,57.17001850483939 172.799365524319,57.17001850483939" />
<edge from="58049717" to="9832172062" id="58049717to9832172062" numLanes="1" shape="-17.639034035848454,-449.05798678006977 -15.034677865915,-451.239314078819" />
<edge from="58049717" to="58049718" id="58049717to58049718" numLanes="1" shape="-17.639034035848454,-449.05798678006977 -7.773122213897295,-421.81811884092167 2.551597758429125,-385.8339254837483 2.551597758429125,-385.8339254837483" />
<edge from="58049717" to="566995342" id="58049717to566995342" numLanes="1" shape="-17.639034035848454,-449.05798678006977 -20.408890123595484,-449.09691247344017 -24.546856489032507,-450.35786251118407 -68.70134959788993,-471.95294481748715 -68.70134959788993,-471.95294481748715" />
<edge from="58049718" to="58049717" id="58049718to58049717" numLanes="1" shape="2.551597758429125,-385.8339254837483 2.551597758429125,-385.8339254837483 -7.773122213897295,-421.81811884092167 -17.639034035848454,-449.05798678006977" />
<edge from="58049718" to="58049719" id="58049718to58049719" numLanes="1" shape="2.551597758429125,-385.8339254837483 9.569204875966534,-351.58347540162504 10.502258569700643,-344.1609567832202 10.502258569700643,-344.1609567832202" />
<edge from="58049718" to="4231408572" id="58049718to4231408572" numLanes="1" shape="2.551597758429125,-385.8339254837483 -68.55323138926178,-356.5083862282336 -74.52777932584286,-354.1883336706087 -79.55833707004786,-354.26805654587224 -82.38342506345361,-356.66935325041413 -94.2059769264888,-376.93791352258995 -97.37899418128654,-379.5893850317225 -102.035051882267,-380.3496897495352 -112.11021895566955,-378.64685972686857 -116.22920800058637,-379.330947634764 -118.68201434588991,-381.74768815515563 -142.85388227796648,-428.36951233120635 -142.85388227796648,-428.36951233120635" />
<edge from="58049719" to="58049718" id="58049719to58049718" numLanes="1" shape="10.502258569700643,-344.1609567832202 10.502258569700643,-344.1609567832202 9.569204875966534,-351.58347540162504 2.551597758429125,-385.8339254837483" />
<edge from="58049719" to="4231408798" id="58049719to4231408798" numLanes="1" shape="10.502258569700643,-344.1609567832202 -59.31182791036554,-317.4507256629877" />
<edge from="58049719" to="4231408587" id="58049719to4231408587" numLanes="1" shape="10.502258569700643,-344.1609567832202 43.688699440448545,-353.3064809013158" />
<edge from="58049719" to="58049720" id="58049719to58049720" numLanes="1" shape="10.502258569700643,-344.1609567832202 10.122772907838225,-333.44732840685174 9.36556911363732,-321.87578737037256 7.307378247147426,-306.02624449459836 -6.881527096498758,-222.89109692210332 -6.881527096498758,-222.89109692210332" />
<edge from="58049720" to="58049719" id="58049720to58049719" numLanes="1" shape="-6.881527096498758,-222.89109692210332 -6.881527096498758,-222.89109692210332 7.307378247147426,-306.02624449459836 9.36556911363732,-321.87578737037256 10.122772907838225,-333.44732840685174 10.502258569700643,-344.1609567832202" />
<edge from="58049720" to="58049722" id="58049720to58049722" numLanes="1" shape="-6.881527096498758,-222.89109692210332 -16.376151904347353,-183.39565969025716 -16.69612221897114,-172.18207068089396 -15.84567214269191,-161.81207993254066 -2.687740857480094,-104.92330572893843 -2.687740857480094,-104.92330572893843" />
<edge from="58049720" to="4231408803" id="58049720to4231408803" numLanes="1" shape="-6.881527096498758,-222.89109692210332 64.71797446988057,-227.60670121200383 72.38792908447795,-228.94262797152624 72.38792908447795,-228.94262797152624" />
<edge from="58049722" to="58049720" id="58049722to58049720" numLanes="1" shape="-2.687740857480094,-104.92330572893843 -2.687740857480094,-104.92330572893843 -15.84567214269191,-161.81207993254066 -16.69612221897114,-172.18207068089396 -16.376151904347353,-183.39565969025716 -6.881527096498758,-222.89109692210332" />
<edge from="58049722" to="58049725" id="58049722to58049725" numLanes="1" shape="-2.687740857480094,-104.92330572893843 4.976446565007791,-73.42165249120444 20.43559039919637,-32.30038282042369 22.845007130061276,-26.403278091922402 26.473519196733832,-20.251339591573924 36.34696643636562,-4.840367424301803 50.858463217969984,12.317351213190705 62.59118190361187,25.056871736887842 81.90715701435693,41.248232109006494 107.82071083365008,65.0532142445445 114.29830990976188,68.47399767441675 114.29830990976188,68.47399767441675" />
<edge from="58049722" to="266809236" id="58049722to266809236" numLanes="1" shape="-2.687740857480094,-104.92330572893843 71.31423190259375,-134.28470191080123 74.72243776638061,-136.52908838400617 74.72243776638061,-136.52908838400617" />
<edge from="58049725" to="58049722" id="58049725to58049722" numLanes="1" shape="114.29830990976188,68.47399767441675 114.29830990976188,68.47399767441675 107.82071083365008,65.0532142445445 81.90715701435693,41.248232109006494 62.59118190361187,25.056871736887842 50.858463217969984,12.317351213190705 36.34696643636562,-4.840367424301803 26.473519196733832,-20.251339591573924 22.845007130061276,-26.403278091922402 20.43559039919637,-32.30038282042369 4.976446565007791,-73.42165249120444 -2.687740857480094,-104.92330572893843" />
<edge from="58049725" to="566995300" id="58049725to566995300" numLanes="1" shape="114.29830990976188,68.47399767441675 72.81959315761924,106.42694214591756" />
<edge from="58049725" to="4231408833" id="58049725to4231408833" numLanes="1" shape="114.29830990976188,68.47399767441675 128.6914819754893,71.58329184213653 165.17281055566855,82.65271808253601 170.38088484527543,83.7335408530198 177.41202124021947,84.69211095478386 184.37842860864475,85.98210577201098 184.37842860864475,85.98210577201098" />
<edge from="58049728" to="3476221608" id="58049728to3476221608" numLanes="1" shape="364.4573969610501,95.15885441564023 350.75360638508573,96.69583539431915" />
<edge from="58049728" to="1854115987" id="58049728to1854115987" numLanes="1" shape="364.4573969610501,95.15885441564023 359.90207095700316,113.19155782228336" />
<edge from="58049728" to="9832189821" id="58049728to9832189821" numLanes="1" shape="364.4573969610501,95.15885441564023 402.6777368504554,89.09880871744826 416.13997968798503,86.30475634010509 429.93950353830587,81.64322659233585 447.27159726212267,75.9813565663062 447.27159726212267,75.9813565663062" />
<edge from="58049737" to="9835425112" id="58049737to9835425112" numLanes="1" shape="523.649703807896,-349.0400632279925 557.4666623730445,-361.07738451845944 589.4885816994356,-369.13385171210393 599.7697657220997,-370.31129740877077 636.7378800442675,-372.0031790295616 644.9834349749144,-371.0556117091328 658.922311356524,-368.2421762095764 667.2814371084096,-364.37681792723015 678.1099204116035,-357.3957917848602 684.1707532986766,-351.49890246707946 688.0057781283977,-345.4095201296732 710.1308287723223,-290.28627765504643 710.1308287723223,-290.28627765504643" />
<edge from="58049737" to="58049742" id="58049737to58049742" numLanes="1" shape="523.649703807896,-349.0400632279925 510.7803651979193,-374.1619214452803 503.2035543228267,-390.9618794042617 485.51853270747233,-435.6163502619602 464.8625431826804,-482.7302870233543 455.66514019900933,-499.2491100705229 450.2786482493393,-505.6325489003211 441.6510573249543,-514.1477810107172 426.5928111297544,-521.6596369151957 407.21173597406596,-526.167672294192 392.74960662494414,-527.1277470239438 304.05241453275084,-520.1289695142768 304.05241453275084,-520.1289695142768" />
<edge from="58049737" to="9832164173" id="58049737to9832164173" numLanes="1" shape="523.649703807896,-349.0400632279925 551.9564547770424,-253.01850828668103 577.3013946672436,-159.97727290121838 581.2809259537607,-146.19136122753844 585.6649807489011,-126.63320551346987 588.3785660016583,-112.13851392222568 589.0934234387241,-101.33852263912559 589.3110216236673,-91.19054636452347 588.878550908179,-79.20291763544083 587.504064882989,-68.17469089804217 585.630614964175,-58.785197840537876 583.5189764413517,-50.29801477724686 577.1805415287381,-30.047125471755862 573.325931235333,-19.374229826033115 569.3840420993511,-10.909102970268577 565.0732737408252,-4.778794280719012 559.1174931692658,2.45253792591393 553.8005398318637,8.464852527715266 546.6540412339382,15.497246889397502 546.6540412339382,15.497246889397502" />
<edge from="58049742" to="58049737" id="58049742to58049737" numLanes="1" shape="304.05241453275084,-520.1289695142768 304.05241453275084,-520.1289695142768 392.74960662494414,-527.1277470239438 407.21173597406596,-526.167672294192 426.5928111297544,-521.6596369151957 441.6510573249543,-514.1477810107172 450.2786482493393,-505.6325489003211 455.66514019900933,-499.2491100705229 464.8625431826804,-482.7302870233543 485.51853270747233,-435.6163502619602 503.2035543228267,-390.9618794042617 510.7803651979193,-374.1619214452803 523.649703807896,-349.0400632279925" />
<edge from="58049742" to="58049743" id="58049742to58049743" numLanes="1" shape="304.05241453275084,-520.1289695142768 242.2872609156184,-510.9353968091309" />
<edge from="58049742" to="566993172" id="58049742to566993172" numLanes="1" shape="304.05241453275084,-520.1289695142768 289.0086395464605,-608.0385726070963 288.7681142985821,-631.0138320010155 290.50783144985326,-638.4324013157748 294.488297025091,-644.7018205928616 303.3203882749658,-652.3579973168671 340.04753377416637,-678.5782414223067 420.1217571662273,-765.7208994594403 429.58279926655814,-773.4986515543424 442.2187220721971,-779.2677560914308 473.06864355597645,-787.966660504695 481.58689145743847,-791.7925185924396 489.4332086824579,-800.6859103925526 523.7278909167508,-874.2108190990984 526.7783318217844,-879.931602016557 530.1079805314075,-882.6872725007124 530.1079805314075,-882.6872725007124" />
<edge from="58049743" to="58049742" id="58049743to58049742" numLanes="1" shape="242.2872609156184,-510.9353968091309 304.05241453275084,-520.1289695142768" />
<edge from="58049743" to="566994353" id="58049743to566994353" numLanes="1" shape="242.2872609156184,-510.9353968091309 259.6186404308537,-470.4894983097911 262.509852678515,-462.00051627354696 264.2857986417366,-454.09710080269724 264.32349084015004,-449.6840529795736 262.96888655796647,-445.69528626231477 262.96888655796647,-445.69528626231477" />
<edge from="58049743" to="58049744" id="58049743to58049744" numLanes="1" shape="242.2872609156184,-510.9353968091309 184.07120666839182,-504.7261092956178 163.31486936402507,-503.56021376652643 163.31486936402507,-503.56021376652643" />
<edge from="58049744" to="58049743" id="58049744to58049743" numLanes="1" shape="163.31486936402507,-503.56021376652643 163.31486936402507,-503.56021376652643 184.07120666839182,-504.7261092956178 242.2872609156184,-510.9353968091309" />
<edge from="58049744" to="4231408568" id="58049744to4231408568" numLanes="1" shape="163.31486936402507,-503.56021376652643 185.85089157812763,-443.940794587601" />
<edge from="58049744" to="4231408557" id="58049744to4231408557" numLanes="1" shape="163.31486936402507,-503.56021376652643 154.61578389932401,-503.79501595022157 123.15997924015392,-505.39441701443866 96.69663079536986,-506.4268317571841 96.69663079536986,-506.4268317571841" />
<edge from="58049748" to="9832172062" id="58049748to9832172062" numLanes="1" shape="-6.851061885245144,-476.1355596994981 -12.906320755020715,-457.9635433354415 -13.595709852641448,-454.4837981876917 -15.034677865915,-451.239314078819 -15.034677865915,-451.239314078819" />
<edge from="58049748" to="4231408553" id="58049748to4231408553" numLanes="1" shape="-6.851061885245144,-476.1355596994981 -36.269425520673394,-499.4823764762841 -65.06868597271387,-538.1503168558702 -65.06868597271387,-538.1503168558702" />
<edge from="58049748" to="4231408558" id="58049748to4231408558" numLanes="1" shape="-6.851061885245144,-476.1355596994981 4.3896854422055185,-490.3337234626524 8.94587118003983,-493.7990740155801 16.068225710070692,-497.8721755351871 26.71201766759623,-501.2386716506444 38.384570683469065,-503.0234063589014 71.61598234355915,-506.5029588053003 71.61598234355915,-506.5029588053003" />
<edge from="58053550" to="3476268417" id="58053550to3476268417" numLanes="1" shape="-52.97799523174763,246.4367916788906 -96.4164041877957,297.02654114738107" />
<edge from="58053550" to="3476268445" id="58053550to3476268445" numLanes="1" shape="-52.97799523174763,246.4367916788906 -8.04960616515018,300.90605848794803" />
<edge from="58053550" to="566995300" id="58053550to566995300" numLanes="1" shape="-52.97799523174763,246.4367916788906 -21.657084171660244,198.47751763649285 -15.621280662715435,191.12542080599815 -6.9408510570647195,180.43975825235248 16.549172634258866,156.3077966440469 44.2196865582373,131.07624349929392 72.81959315761924,106.42694214591756 72.81959315761924,106.42694214591756" />
<edge from="266442952" to="3476149008" id="266442952to3476149008" numLanes="1" shape="319.1613245806657,732.0604474865831 324.41225514607504,741.0356352035888" />
<edge from="266442952" to="3476104626" id="266442952to3476104626" numLanes="1" shape="319.1613245806657,732.0604474865831 408.30557808629237,669.0178910703398" />
<edge from="266442952" to="3476101473" id="266442952to3476101473" numLanes="1" shape="319.1613245806657,732.0604474865831 309.87018890934996,712.6574982218444 300.34732946706936,693.6162173906341 295.0642685322091,683.7092080111615 290.4062246362446,677.6715642288327 276.93263425678015,661.1087055490352 276.93263425678015,661.1087055490352" />
<edge from="266442954" to="266442955" id="266442954to266442955" numLanes="1" shape="133.53710054396652,452.9082427797839 76.33616405702196,383.7045287368819" />
<edge from="266442954" to="3476273433" id="266442954to3476273433" numLanes="1" shape="133.53710054396652,452.9082427797839 100.85457611142192,479.2462986698374" />
<edge from="266442954" to="2265700200" id="266442954to2265700200" numLanes="1" shape="133.53710054396652,452.9082427797839 156.92078700079583,487.17756451573223 170.98495579138398,513.3295405413955 176.33731061266735,523.2044710037299 180.35915847984143,529.7848744792864 190.28568511037156,543.8444648832083 196.6005360726267,551.9186469726264 208.31397423474118,567.3076695832424 208.31397423474118,567.3076695832424" />
<edge from="266442954" to="566995335" id="266442954to566995335" numLanes="1" shape="133.53710054396652,452.9082427797839 229.07981402333826,385.24603879405186 232.6443574136356,381.92915618699044 232.6443574136356,381.92915618699044" />
<edge from="266442955" to="266442954" id="266442955to266442954" numLanes="1" shape="76.33616405702196,383.7045287368819 133.53710054396652,452.9082427797839" />
<edge from="266442955" to="3476273431" id="266442955to3476273431" numLanes="1" shape="76.33616405702196,383.7045287368819 50.32905275491066,402.5026879236102" />
<edge from="266442955" to="3476268445" id="266442955to3476268445" numLanes="1" shape="76.33616405702196,383.7045287368819 41.44213201850653,354.18304730951786 26.58270110434387,338.9702102714218 9.482548264903016,320.4464493668638 -8.04960616515018,300.90605848794803 -8.04960616515018,300.90605848794803" />
<edge from="266442955" to="566995279" id="266442955to566995279" numLanes="1" shape="76.33616405702196,383.7045287368819 92.4916097096866,371.61301118833944 94.58099097269587,368.66854067798704 94.58099097269587,368.66854067798704" />
<edge from="266809236" to="58049722" id="266809236to58049722" numLanes="1" shape="74.72243776638061,-136.52908838400617 74.72243776638061,-136.52908838400617 71.31423190259375,-134.28470191080123 -2.687740857480094,-104.92330572893843" />
<edge from="266809236" to="266809237" id="266809236to266809237" numLanes="1" shape="74.72243776638061,-136.52908838400617 77.66557040077168,-140.66655363654718 103.44044684641995,-195.31106952764094 106.0198978955159,-199.36640954809263 106.0198978955159,-199.36640954809263" />
<edge from="266809236" to="9835418106" id="266809236to9835418106" numLanes="1" shape="74.72243776638061,-136.52908838400617 101.73248412099201,-82.36103292834014 103.72714117122814,-78.43368622520939 103.72714117122814,-78.43368622520939" />
<edge from="266809237" to="266809236" id="266809237to266809236" numLanes="1" shape="106.0198978955159,-199.36640954809263 106.0198978955159,-199.36640954809263 103.44044684641995,-195.31106952764094 77.66557040077168,-140.66655363654718 74.72243776638061,-136.52908838400617" />
<edge from="266809237" to="4231408803" id="266809237to4231408803" numLanes="1" shape="106.0198978955159,-199.36640954809263 72.38792908447795,-228.94262797152624" />
<edge from="266809237" to="266809238" id="266809237to266809238" numLanes="1" shape="106.0198978955159,-199.36640954809263 110.52747991587967,-202.8547664792277 173.90259750501718,-229.7246932303533 179.06325342482887,-231.97063848283142 184.45721623767167,-234.66690483968705 189.99082741350867,-238.04799817642197 189.99082741350867,-238.04799817642197" />
<edge from="266809238" to="266809237" id="266809238to266809237" numLanes="1" shape="189.99082741350867,-238.04799817642197 189.99082741350867,-238.04799817642197 184.45721623767167,-234.66690483968705 179.06325342482887,-231.97063848283142 173.90259750501718,-229.7246932303533 110.52747991587967,-202.8547664792277 106.0198978955159,-199.36640954809263" />
<edge from="566993172" to="58049742" id="566993172to58049742" numLanes="1" shape="530.1079805314075,-882.6872725007124 530.1079805314075,-882.6872725007124 526.7783318217844,-879.931602016557 523.7278909167508,-874.2108190990984 489.4332086824579,-800.6859103925526 481.58689145743847,-791.7925185924396 473.06864355597645,-787.966660504695 442.2187220721971,-779.2677560914308 429.58279926655814,-773.4986515543424 420.1217571662273,-765.7208994594403 340.04753377416637,-678.5782414223067 303.3203882749658,-652.3579973168671 294.488297025091,-644.7018205928616 290.50783144985326,-638.4324013157748 288.7681142985821,-631.0138320010155 289.0086395464605,-608.0385726070963 304.05241453275084,-520.1289695142768" />
<edge from="566993172" to="9832213062" id="566993172to9832213062" numLanes="1" shape="530.1079805314075,-882.6872725007124 533.5691087382147,-883.5115356026217 538.8639629869722,-883.4156977976672 571.3456480273744,-874.0694938139059 571.3456480273744,-874.0694938139059" />
<edge from="566993172" to="9855232630" id="566993172to9855232630" numLanes="1" shape="530.1079805314075,-882.6872725007124 496.90325197181664,-938.6424035937525 496.23371082847007,-941.1378638930619 496.6142085646279,-943.769531248603 497.8274216511054,-946.4304748359136 499.78185623395257,-948.9338821005076 514.7484094549436,-960.6695543825626 557.0929061900824,-989.9250005148351 566.4950459164102,-997.138323192019 572.4571665945696,-1003.0724626709707 575.2917812205851,-1009.3071160949767 577.5941343422746,-1018.5890676416457 577.1891377675347,-1027.044206939172 574.6773352205055,-1033.7747530788183 570.476497505093,-1040.2254553656094 568.1462903660722,-1042.3851315495558 565.0776215577498,-1044.3142745830119 558.7571614034241,-1046.1692415135913 551.3929849469569,-1047.1561878016219 534.9244131376036,-1048.1859629652463 522.137510004919,-1049.781007469166 510.3182640001178,-1052.910616189707 477.8530417974107,-1062.6554168830626 469.9911413821392,-1064.2721523754299 459.3214843982132,-1066.006199912168 451.42031851923093,-1065.9939392977394 443.9303091955371,-1064.3556278417818 410.3341118214885,-1053.2561872177757 410.3341118214885,-1053.2561872177757" />
<edge from="566994353" to="58049743" id="566994353to58049743" numLanes="1" shape="262.96888655796647,-445.69528626231477 262.96888655796647,-445.69528626231477 264.32349084015004,-449.6840529795736 264.2857986417366,-454.09710080269724 262.509852678515,-462.00051627354696 259.6186404308537,-470.4894983097911 242.2872609156184,-510.9353968091309" />
<edge from="566994353" to="9971670763" id="566994353to9971670763" numLanes="1" shape="262.96888655796647,-445.69528626231477 279.9055398852797,-440.82148582302034" />
<edge from="566994353" to="9832189843" id="566994353to9832189843" numLanes="1" shape="262.96888655796647,-445.69528626231477 258.58412606606726,-440.88548216130584 244.3379240569193,-433.20521409763023 240.32149723777547,-428.73242191411555 234.89128666208126,-415.3717643772252 226.10220017796382,-390.5863699140027 222.12502128863707,-383.95102607412264 211.70542526431382,-370.78032888192683 182.2613656721078,-343.9181693983264 182.2613656721078,-343.9181693983264" />
<edge from="566995279" to="266442955" id="566995279to266442955" numLanes="1" shape="94.58099097269587,368.66854067798704 94.58099097269587,368.66854067798704 92.4916097096866,371.61301118833944 76.33616405702196,383.7045287368819" />
<edge from="566995279" to="3476240908" id="566995279to3476240908" numLanes="1" shape="94.58099097269587,368.66854067798704 129.82324994867668,348.04183734208345 145.01278030965477,335.77771772351116 152.15463308373,318.14647417422384 149.20232868741732,294.0911595444195 149.20232868741732,294.0911595444195" />
<edge from="566995286" to="3476230992" id="566995286to3476230992" numLanes="1" shape="163.85384605266154,282.8927096151747 174.81965537194628,274.1331636849791" />
<edge from="566995286" to="3476240908" id="566995286to3476240908" numLanes="1" shape="163.85384605266154,282.8927096151747 149.20232868741732,294.0911595444195" />
<edge from="566995286" to="9717246533" id="566995286to9717246533" numLanes="1" shape="163.85384605266154,282.8927096151747 118.96606146718841,220.79605592228472 110.38578268606216,208.05799167510122 110.38578268606216,208.05799167510122" />
<edge from="566995298" to="566995300" id="566995298to566995300" numLanes="1" shape="87.80616599682253,120.5778222726658 85.85484278597869,117.50490630650893 72.81959315761924,106.42694214591756 72.81959315761924,106.42694214591756" />
<edge from="566995298" to="9717246533" id="566995298to9717246533" numLanes="1" shape="87.80616599682253,120.5778222726658 88.61950013786554,123.24215439939871 87.64270038274117,135.04254720639437 85.18917655083351,159.22187638655305 85.59593376051635,164.88326151529327 88.46821666974574,174.95721622137353 90.7196186640067,179.84263012977317 110.38578268606216,208.05799167510122 110.38578268606216,208.05799167510122" />
<edge from="566995298" to="566995310" id="566995298to566995310" numLanes="1" shape="87.80616599682253,120.5778222726658 93.43428992445115,120.6240852237679 96.38297024997883,120.51107089454308 99.70235511299688,119.92804303532466 103.23468927131034,118.39543844899163 118.8420423688367,106.85943028936163 123.80060910433531,104.953496939037 128.53543867659755,104.05237967055291 158.78039007389452,107.5590646956116 164.89013755251653,109.66504122456536 182.60634566599037,117.40204845787957 187.5952060483396,120.31925184326246 192.33233247406315,124.70639152918011 234.9617169596022,190.43206611881033 238.04358518659137,197.0287422798574 239.22311174450442,203.80166159709916 239.22311174450442,203.80166159709916" />
<edge from="566995300" to="58049725" id="566995300to58049725" numLanes="1" shape="72.81959315761924,106.42694214591756 114.29830990976188,68.47399767441675" />
<edge from="566995300" to="58053550" id="566995300to58053550" numLanes="1" shape="72.81959315761924,106.42694214591756 72.81959315761924,106.42694214591756 44.2196865582373,131.07624349929392 16.549172634258866,156.3077966440469 -6.9408510570647195,180.43975825235248 -15.621280662715435,191.12542080599815 -21.657084171660244,198.47751763649285 -52.97799523174763,246.4367916788906" />
<edge from="566995300" to="566995298" id="566995300to566995298" numLanes="1" shape="72.81959315761924,106.42694214591756 72.81959315761924,106.42694214591756 85.85484278597869,117.50490630650893 87.80616599682253,120.5778222726658" />
<edge from="566995310" to="566995298" id="566995310to566995298" numLanes="1" shape="239.22311174450442,203.80166159709916 239.22311174450442,203.80166159709916 238.04358518659137,197.0287422798574 234.9617169596022,190.43206611881033 192.33233247406315,124.70639152918011 187.5952060483396,120.31925184326246 182.60634566599037,117.40204845787957 164.89013755251653,109.66504122456536 158.78039007389452,107.5590646956116 128.53543867659755,104.05237967055291 123.80060910433531,104.953496939037 118.8420423688367,106.85943028936163 103.23468927131034,118.39543844899163 99.70235511299688,119.92804303532466 96.38297024997883,120.51107089454308 93.43428992445115,120.6240852237679 87.80616599682253,120.5778222726658" />
<edge from="566995310" to="3476230992" id="566995310to3476230992" numLanes="1" shape="239.22311174450442,203.80166159709916 238.7435194007121,208.1277548065409 234.07535714353435,223.20948006259277 230.99049629166257,229.77225475665182 226.5796551394742,233.87205612566322 204.77718710363843,250.19608019851148 174.81965537194628,274.1331636849791 174.81965537194628,274.1331636849791" />
<edge from="566995310" to="566995324" id="566995310to566995324" numLanes="1" shape="239.22311174450442,203.80166159709916 247.31890257250052,204.34716331539676 256.1257792613469,206.71260599326342 265.9812448261073,211.18125416059047 269.24041814845987,215.00955732911825 302.3823136166902,273.2026202008128 310.7760917280102,287.5782542489469 310.7760917280102,287.5782542489469" />
<edge from="566995324" to="566995310" id="566995324to566995310" numLanes="1" shape="310.7760917280102,287.5782542489469 310.7760917280102,287.5782542489469 302.3823136166902,273.2026202008128 269.24041814845987,215.00955732911825 265.9812448261073,211.18125416059047 256.1257792613469,206.71260599326342 247.31890257250052,204.34716331539676 239.22311174450442,203.80166159709916" />
<edge from="566995324" to="566995326" id="566995324to566995326" numLanes="1" shape="310.7760917280102,287.5782542489469 347.52309456304647,345.0606519128196" />
<edge from="566995324" to="3476242095" id="566995324to3476242095" numLanes="1" shape="310.7760917280102,287.5782542489469 241.33497058646753,338.20650208415464 236.9292066792259,341.48599856859073 233.50122191826813,345.37075436487794 231.24045815016143,351.2943344414234 230.93531513691414,357.34196818899363 231.70951686776243,362.1674472494051 233.80396609636955,374.64421495003626 233.80396609636955,374.64421495003626" />
<edge from="566995326" to="566995324" id="566995326to566995324" numLanes="1" shape="347.52309456304647,345.0606519128196 310.7760917280102,287.5782542489469" />
<edge from="566995326" to="9837598402" id="566995326to9837598402" numLanes="1" shape="347.52309456304647,345.0606519128196 350.41442224394996,350.2792104035616" />
<edge from="566995326" to="9827371419" id="566995326to9827371419" numLanes="1" shape="347.52309456304647,345.0606519128196 331.7839466575533,354.1438819109462 328.6344684015494,356.16005497425795 326.4925981364213,357.67339795362204 321.6017193996813,360.7112743454054 280.3369538038969,389.0111225345172 250.17929153249133,409.4078340809792 250.17929153249133,409.4078340809792" />
<edge from="566995329" to="6569145322" id="566995329to6569145322" numLanes="1" shape="382.66497992526274,460.9282389357686 378.9569902595831,464.5972459469922 313.2346731936559,505.58066192502156 313.2346731936559,505.58066192502156" />
<edge from="566995329" to="9827298800" id="566995329to9827298800" numLanes="1" shape="382.66497992526274,460.9282389357686 384.51948279328644,456.36095448955894 386.4040472842753,442.55926703941077 387.2397664481541,435.86713603837416 387.2397664481541,435.86713603837416" />
<edge from="566995329" to="9186487923" id="566995329to9186487923" numLanes="1" shape="382.66497992526274,460.9282389357686 387.1083504371345,464.7669279011898 391.86242242052685,469.2875102646649 396.1767214894062,473.76687697693706 400.9160601181211,480.18296674406156 425.09210997028276,518.2255112263374 425.09210997028276,518.2255112263374" />
<edge from="566995334" to="9832318660" id="566995334to9832318660" numLanes="1" shape="-21.27523997926619,575.7082099886611 -18.788362353574485,569.7221590867266 -14.070091396104544,563.7653278764337 32.605142698506825,531.216444815509 32.605142698506825,531.216444815509" />
<edge from="566995334" to="9832093896" id="566995334to9832093896" numLanes="1" shape="-21.27523997926619,575.7082099886611 -20.764647349598818,582.1253387895413 -9.74846060888376,604.1533366693184 -2.450420218752697,614.1631019762717 32.25780955888331,650.6766451681033 40.265518279513344,661.4974820157513 45.25890594650991,669.569876969792 45.25890594650991,669.569876969792" />
<edge from="566995335" to="266442954" id="566995335to266442954" numLanes="1" shape="232.6443574136356,381.92915618699044 232.6443574136356,381.92915618699044 229.07981402333826,385.24603879405186 133.53710054396652,452.9082427797839" />