<connections>
<connection from="58047707to58047704" to="58047704to58047707" />
<connection from="58047704to58047707" to="58047707to58047704" />
<connection from="58047704to58047707" to="58047707to2265700198" />
<connection from="58047704to58047707" to="58047707to4231408829" />
<connection from="2265700198to58047707" to="58047707to58047704" />
<connection from="2265700198to58047707" to="58047707to2265700198" />
<connection from="2265700198to58047707" to="58047707to4231408829" />
<connection from="4231408829to58047707" to="58047707to58047704" />
<connection from="4231408829to58047707" to="58047707to2265700198" />
<connection from="4231408829to58047707" to="58047707to4231408829" />
<connection from="9832172062to58049717" to="58049717to9832172062" />
<connection from="9832172062to58049717" to="58049717to58049718" />
<connection from="9832172062to58049717" to="58049717to566995342" />
<connection from="58049718to58049717" to="58049717to9832172062" />
<connection from="58049718to58049717" to="58049717to58049718" />
<connection from="58049718to58049717" to="58049717to566995342" />
<connection from="566995342to58049717" to="58049717to9832172062" />
<connection from="566995342to58049717" to="58049717to58049718" />
<connection from="566995342to58049717" to="58049717to566995342" />
<connection from="58049717to58049718" to="58049718to58049717" />
<connection from="58049717to58049718" to="58049718to58049719" />
<connection from="58049717to58049718" to="58049718to4231408572" />
<connection from="58049719to58049718" to="58049718to58049717" />
<connection from="58049719to58049718" to="58049718to58049719" />
<connection from="58049719to58049718" to="58049718to4231408572" />
<connection from="4231408572to58049718" to="58049718to58049717" />
<connection from="4231408572to58049718" to="58049718to58049719" />
<connection from="4231408572to58049718" to="58049718to4231408572" />
<connection from="58049718to58049719" to="58049719to58049718" />
<connection from="58049718to58049719" to="58049719to4231408798" />
<connection from="58049718to58049719" to="58049719to4231408587" />
<connection from="58049718to58049719" to="58049719to58049720" />
<connection from="4231408798to58049719" to="58049719to58049718" />
<connection from="4231408798to58049719" to="58049719to4231408798" />
<connection from="4231408798to58049719" to="58049719to4231408587" />
<connection from="4231408798to58049719" to="58049719to58049720" />
<connection from="4231408587to58049719" to="58049719to58049718" />
<connection from="4231408587to58049719" to="58049719to4231408798" />
<connection from="4231408587to58049719" to="58049719to4231408587" />
<connection from="4231408587to58049719" to="58049719to58049720" />
<connection from="58049720to58049719" to="58049719to58049718" />
<connection from="58049720to58049719" to="58049719to4231408798" />
<connection from="58049720to58049719" to="58049719to4231408587" />
<connection from="58049720to58049719" to="58049719to58049720" />
<connection from="58049719to58049720" to="58049720to58049719" />
<connection from="58049719to58049720" to="58049720to58049722" />
<connection from="58049719to58049720" to="58049720to4231408803" />
<connection from="58049722to58049720" to="58049720to58049719" />
<connection from="58049722to58049720" to="58049720to58049722" />
<connection from="58049722to58049720" to="58049720to4231408803" />
<connection from="4231408803to58049720" to="58049720to58049719" />
<connection from="4231408803to58049720" to="58049720to58049722" />
<connection from="4231408803to58049720" to="58049720to4231408803" />
<connection from="58049720to58049722" to="58049722to58049720" />
<connection from="58049720to58049722" to="58049722to58049725" />
<connection from="58049720to58049722" to="58049722to266809236" />
<connection from="58049725to58049722" to="58049722to58049720" />
<connection from="58049725to58049722" to="58049722to58049725" />
<connection from="58049725to58049722" to="58049722to266809236" />
<connection from="266809236to58049722" to="58049722to58049720" />
<connection from="266809236to58049722" to="58049722to58049725" />
<connection from="266809236to58049722" to="58049722to266809236" />
<connection from="58049722to58049725" to="58049725to58049722" />
<connection from="58049722to58049725" to="58049725to566995300" />
<connection from="58049722to58049725" to="58049725to4231408833" />
<connection from="566995300to58049725" to="58049725to58049722" />
<connection from="566995300to58049725" to="58049725to566995300" />
<connection from="566995300to58049725" to="58049725to4231408833" />
<connection from="4231408833to58049725" to="58049725to58049722" />
<connection from="4231408833to58049725" to="58049725to566995300" />
<connection from="4231408833to58049725" to="58049725to4231408833" />
<connection from="3476221608to58049728" to="58049728to3476221608" />
<connection from="3476221608to58049728" to="58049728to1854115987" />
<connection from="3476221608to58049728" to="58049728to9832189821" />
<connection from="1854115987to58049728" to="58049728to3476221608" />
<connection from="1854115987to58049728" to="58049728to1854115987" />
<connection from="1854115987to58049728" to="58049728to9832189821" />
<connection from="9832189821to58049728" to="58049728to3476221608" />
<connection from="9832189821to58049728" to="58049728to1854115987" />
<connection from="9832189821to58049728" to="58049728to9832189821" />
<connection from="9835425112to58049737" to="58049737to9835425112" />
<connection from="9835425112to58049737" to="58049737to58049742" />
<connection from="9835425112to58049737" to="58049737to9832164173" />
<connection from="58049742to58049737" to="58049737to9835425112" />
<connection from="58049742to58049737" to="58049737to58049742" />
<connection from="58049742to58049737" to="58049737to9832164173" />
<connection from="9832164173to58049737" to="58049737to9835425112" />
<connection from="9832164173to58049737" to="58049737to58049742" />
<connection from="9832164173to58049737" to="58049737to9832164173" />
<connection from="58049737to58049742" to="58049742to58049737" />
<connection from="58049737to58049742" to="58049742to58049743" />
<connection from="58049737to58049742" to="58049742to566993172" />
<connection from="58049743to58049742" to="58049742to58049737" />
<connection from="58049743to58049742" to="58049742to58049743" />
<connection from="58049743to58049742" to="58049742to566993172" />
<connection from="566993172to58049742" to="58049742to58049737" />
<connection from="566993172to58049742" to="58049742to58049743" />
<connection from="566993172to58049742" to="58049742to566993172" />
<connection from="58049742to58049743" to="58049743to58049742" />
<connection from="58049742to58049743" to="58049743to566994353" />
<connection from="58049742to58049743" to="58049743to58049744" />
<connection from="566994353to58049743" to="58049743to58049742" />
<connection from="566994353to58049743" to="58049743to566994353" />
<connection from="566994353to58049743" to="58049743to58049744" />
<connection from="58049744to58049743" to="58049743to58049742" />
<connection from="58049744to58049743" to="58049743to566994353" />
<connection from="58049744to58049743" to="58049743to58049744" />
<connection from="58049743to58049744" to="58049744to58049743" />
<connection from="58049743to58049744" to="58049744to4231408568" />
<connection from="58049743to58049744" to="58049744to4231408557" />
<connection from="4231408568to58049744" to="58049744to58049743" />
<connection from="4231408568to58049744" to="58049744to4231408568" />
<connection from="4231408568to58049744" to="58049744to4231408557" />
<connection from="4231408557to58049744" to="58049744to58049743" />
<connection from="4231408557to58049744" to="58049744to4231408568" />
<connection from="4231408557to58049744" to="58049744to4231408557" />
<connection from="9832172062to58049748" to="58049748to9832172062" />
<connection from="9832172062to58049748" to="58049748to4231408553" />
<connection from="9832172062to58049748" to="58049748to4231408558" />
<connection from="4231408553to58049748" to="58049748to9832172062" />
<connection from="4231408553to58049748" to="58049748to4231408553" />
<connection from="4231408553to58049748" to="58049748to4231408558" />
<connection from="4231408558to58049748" to="58049748to9832172062" />
<connection from="4231408558to58049748" to="58049748to4231408553" />
<connection from="4231408558to58049748" to="58049748to4231408558" />
<connection from="3476268417to58053550" to="58053550to3476268417" />
<connection from="3476268417to58053550" to="58053550to3476268445" />
<connection from="3476268417to58053550" to="58053550to566995300" />
<connection from="3476268445to58053550" to="58053550to3476268417" />
<connection from="3476268445to58053550" to="58053550to3476268445" />
<connection from="3476268445to58053550" to="58053550to566995300" />
<connection from="566995300to58053550" to="58053550to3476268417" />
<connection from="566995300to58053550" to="58053550to3476268445" />
<connection from="566995300to58053550" to="58053550to566995300" />
<connection from="3476149008to266442952" to="266442952to3476149008" />
<connection from="3476149008to266442952" to="266442952to3476104626" />
<connection from="3476149008to266442952" to="266442952to3476101473" />
<connection from="3476104626to266442952" to="266442952to3476149008" />
<connection from="3476104626to266442952" to="266442952to3476104626" />
<connection from="3476104626to266442952" to="266442952to3476101473" />
<connection from="3476101473to266442952" to="266442952to3476149008" />
<connection from="3476101473to266442952" to="266442952to3476104626" />
<connection from="3476101473to266442952" to="266442952to3476101473" />
<connection from="266442955to266442954" to="266442954to266442955" />
<connection from="266442955to266442954" to="266442954to3476273433" />
<connection from="266442955to266442954" to="266442954to2265700200" />
<connection from="266442955to266442954" to="266442954to566995335" />
<connection from="3476273433to266442954" to="266442954to266442955" />
<connection from="3476273433to266442954" to="266442954to3476273433" />
<connection from="3476273433to266442954" to="266442954to2265700200" />
<connection from="3476273433to266442954" to="266442954to566995335" />
<connection from="2265700200to266442954" to="266442954to266442955" />
<connection from="2265700200to266442954" to="266442954to3476273433" />
<connection from="2265700200to266442954" to="266442954to2265700200" />
<connection from="2265700200to266442954" to="266442954to566995335" />
<connection from="566995335to266442954" to="266442954to266442955" />
<connection from="566995335to266442954" to="266442954to3476273433" />
<connection from="566995335to266442954" to="266442954to2265700200" />
<connection from="566995335to266442954" to="266442954to566995335" />
<connection from="266442954to266442955" to="266442955to266442954" />
<connection from="266442954to266442955" to="266442955to3476273431" />
<connection from="266442954to266442955" to="266442955to3476268445" />
<connection from="266442954to266442955" to="266442955to566995279" />
<connection from="3476273431to266442955" to="266442955to266442954" />
<connection from="3476273431to266442955" to="266442955to3476273431" />
<connection from="3476273431to266442955" to="266442955to3476268445" />
<connection from="3476273431to266442955" to="266442955to566995279" />
<connection from="3476268445to266442955" to="266442955to266442954" />
<connection from="3476268445to266442955" to="266442955to3476273431" />
<connection from="3476268445to266442955" to="266442955to3476268445" />
<connection from="3476268445to266442955" to="266442955to566995279" />
<connection from="566995279to266442955" to="266442955to266442954" />
<connection from="566995279to266442955" to="266442955to3476273431" />
<connection from="566995279to266442955" to="266442955to3476268445" />
<connection from="566995279to266442955" to="266442955to566995279" />
<connection from="58049722to266809236" to="266809236to58049722" />
<connection from="58049722to266809236" to="266809236to266809237" />
<connection from="58049722to266809236" to="266809236to9835418106" />
<connection from="266809237to266809236" to="266809236to58049722" />
<connection from="266809237to266809236" to="266809236to266809237" />
<connection from="266809237to266809236" to="266809236to9835418106" />
<connection from="9835418106to266809236" to="266809236to58049722" />
<connection from="9835418106to266809236" to="266809236to266809237" />
<connection from="9835418106to266809236" to="266809236to9835418106" />
<connection from="266809236to266809237" to="266809237to266809236" />
<connection from="266809236to266809237" to="266809237to4231408803" />
<connection from="266809236to266809237" to="266809237to266809238" />
<connection from="4231408803to266809237" to="266809237to266809236" />
<connection from="4231408803to266809237" to="266809237to4231408803" />
<connection from="4231408803to266809237" to="266809237to266809238" />
<connection from="266809238to266809237" to="266809237to266809236" />
<connection from="266809238to266809237" to="266809237to4231408803" />
<connection from="266809238to266809237" to="266809237to266809238" />
<connection from="266809237to266809238" to="266809238to266809237" />
<connection from="58049742to566993172" to="566993172to58049742" />
<connection from="58049742to566993172" to="566993172to9832213062" />
<connection from="58049742to566993172" to="566993172to9855232630" />
<connection from="9832213062to566993172" to="566993172to58049742" />
<connection from="9832213062to566993172" to="566993172to9832213062" />
<connection from="9832213062to566993172" to="566993172to9855232630" />
<connection from="9855232630to566993172" to="566993172to58049742" />
<connection from="9855232630to566993172" to="566993172to9832213062" />
<connection from="9855232630to566993172" to="566993172to9855232630" />
<connection from="58049743to566994353" to="566994353to58049743" />
<connection from="58049743to566994353" to="566994353to9971670763" />
<connection from="58049743to566994353" to="566994353to9832189843" />
<connection from="9971670763to566994353" to="566994353to58049743" />
<connection from="9971670763to566994353" to="566994353to9971670763" />
<connection from="9971670763to566994353" to="566994353to9832189843" />
<connection from="9832189843to566994353" to="566994353to58049743" />
<connection from="9832189843to566994353" to="566994353to9971670763" />
<connection from="9832189843to566994353" to="566994353to9832189843" />
<connection from="266442955to566995279" to="566995279to266442955" />
<connection from="266442955to566995279" to="566995279to3476240908" />
<connection from="3476240908to566995279" to="566995279to266442955" />
<connection from="3476240908to566995279" to="566995279to3476240908" />
<connection from="3476230992to566995286" to="566995286to3476230992" />
<connection from="3476230992to566995286" to="566995286to3476240908" />
<connection from="3476230992to566995286" to="566995286to9717246533" />
<connection from="3476240908to566995286" to="566995286to3476230992" />
<connection from="3476240908to566995286" to="566995286to3476240908" />
<connection from="3476240908to566995286" to="566995286to9717246533" />
<connection from="9717246533to566995286" to="566995286to3476230992" />
<connection from="9717246533to566995286" to="566995286to3476240908" />
<connection from="9717246533to566995286" to="566995286to9717246533" />
<connection from="566995300to566995298" to="566995298to566995300" />
<connection from="566995300to566995298" to="566995298to9717246533" />
<connection from="566995300to566995298" to="566995298to566995310" />
<connection from="9717246533to566995298" to="566995298to566995300" />
<connection from="9717246533to566995298" to="566995298to9717246533" />
<connection from="9717246533to566995298" to="566995298to566995310" />
<connection from="566995310to566995298" to="566995298to566995300" />
<connection from="566995310to566995298" to="566995298to9717246533" />
<connection from="566995310to566995298" to="566995298to566995310" />
<connection from="58049725to566995300" to="566995300to58049725" />
<connection from="58049725to566995300" to="566995300to58053550" />
<connection from="58049725to566995300" to="566995300to566995298" />
<connection from="58053550to566995300" to="566995300to58049725" />
<connection from="58053550to566995300" to="566995300to58053550" />
<connection from="58053550to566995300" to="566995300to566995298" />
<connection from="566995298to566995300" to="566995300to58049725" />
<connection from="566995298to566995300" to="566995300to58053550" />
<connection from="566995298to566995300" to="566995300to566995298" />
<connection from="566995298to566995310" to="566995310to566995298" />
<connection from="566995298to566995310" to="566995310to3476230992" />
<connection from="566995298to566995310" to="566995310to566995324" />
<connection from="3476230992to566995310" to="566995310to566995298" />
<connection from="3476230992to566995310" to="566995310to3476230992" />
<connection from="3476230992to566995310" to="566995310to566995324" />
<connection from="566995324to566995310" to="566995310to566995298" />
<connection from="566995324to566995310" to="566995310to3476230992" />
<connection from="566995324to566995310" to="566995310to566995324" />
<connection from="566995310to566995324" to="566995324to566995310" />
<connection from="566995310to566995324" to="566995324to566995326" />
<connection from="566995310to566995324" to="566995324to3476242095" />
<connection from="566995326to566995324" to="566995324to566995310" />
<connection from="566995326to566995324" to="566995324to566995326" />
<connection from="566995326to566995324" to="566995324to3476242095" />
<connection from="3476242095to566995324" to="566995324to566995310" />
<connection from="3476242095to566995324" to="566995324to566995326" />
<connection from="3476242095to566995324" to="566995324to3476242095" />
<connection from="566995324to566995326" to="566995326to566995324" />
<connection from="566995324to566995326" to="566995326to9837598402" />
<connection from="566995324to566995326" to="566995326to9827371419" />
<connection from="9837598402to566995326" to="566995326to566995324" />
<connection from="9837598402to566995326" to="566995326to9837598402" />
<connection from="9837598402to566995326" to="566995326to9827371419" />
<connection from="9827371419to566995326" to="566995326to566995324" />
<connection from="9827371419to566995326" to="566995326to9837598402" />
<connection from="9827371419to566995326" to="566995326to9827371419" />
<connection from="6569145322to566995329" to="566995329to6569145322" />
<connection from="6569145322to566995329" to="566995329to9827298800" />
<connection from="6569145322to566995329" to="566995329to9186487923" />
<connection from="9827298800to566995329" to="566995329to6569145322" />
<connection from="9827298800to566995329" to="566995329to9827298800" />
<connection from="9827298800to566995329" to="566995329to9186487923" />
<connection from="9186487923to566995329" to="566995329to6569145322" />
<connection from="9186487923to566995329" to="566995329to9827298800" />
<connection from="9186487923to566995329" to="566995329to9186487923" />
<connection from="9832318660to566995334" to="566995334to9832318660" />
<connection from="9832318660to566995334" to="566995334to9832093896" />
<connection from="9832093896to566995334" to="566995334to9832318660" />
<connection from="9832093896to566995334" to="566995334to9832093896" />
<connection from="266442954to566995335" to="566995335to266442954" />
<connection from="266442954to566995335" to="566995335to9827371419" />
<connection from="266442954to566995335" to="566995335to3476242095" />
<connection from="9827371419to566995335" to="566995335to266442954" />
<connection from="9827371419to566995335" to="566995335to9827371419" />
<connection from="9827371419to566995335" to="566995335to3476242095" />
<connection from="3476242095to566995335" to="566995335to266442954" />
<connection from="3476242095to566995335" to="566995335to9827371419" />
<connection from="3476242095to566995335" to="566995335to3476242095" />
<connection from="58049717to566995342" to="566995342to58049717" />
<connection from="58049717to566995342" to="566995342to4231408547" />
<connection from="58049717to566995342" to="566995342to10002788872" />
<connection from="4231408547to566995342" to="566995342to58049717" />
<connection from="4231408547to566995342" to="566995342to4231408547" />
<connection from="4231408547to566995342" to="566995342to10002788872" />
<connection from="10002788872to566995342" to="566995342to58049717" />
<connection from="10002788872to566995342" to="566995342to4231408547" />
<connection from="10002788872to566995342" to="566995342to10002788872" />
<connection from="58049728to1854115987" to="1854115987to58049728" />
<connection from="58049728to1854115987" to="1854115987to3476221608" />
<connection from="58049728to1854115987" to="1854115987to9827298806" />
<connection from="3476221608to1854115987" to="1854115987to58049728" />
<connection from="3476221608to1854115987" to="1854115987to3476221608" />
<connection from="3476221608to1854115987" to="1854115987to9827298806" />
<connection from="9827298806to1854115987" to="1854115987to58049728" />
<connection from="9827298806to1854115987" to="1854115987to3476221608" />
<connection from="9827298806to1854115987" to="1854115987to9827298806" />
<connection from="9832126091to1854115992" to="1854115992to9832126091" />
<connection from="9832126091to1854115992" to="1854115992to9827298806" />
<connection from="9832126091to1854115992" to="1854115992to3476130223" />
<connection from="9827298806to1854115992" to="1854115992to9832126091" />
<connection from="9827298806to1854115992" to="1854115992to9827298806" />
<connection from="9827298806to1854115992" to="1854115992to3476130223" />
<connection from="3476130223to1854115992" to="1854115992to9832126091" />
<connection from="3476130223to1854115992" to="1854115992to9827298806" />
<connection from="3476130223to1854115992" to="1854115992to3476130223" />
<connection from="4231408862to1854119783" to="1854119783to4231408862" />
<connection from="4231408862to1854119783" to="1854119783to1854119797" />
<connection from="4231408862to1854119783" to="1854119783to4231408859" />
<connection from="4231408862to1854119783" to="1854119783to1854119794" />
<connection from="1854119797to1854119783" to="1854119783to4231408862" />
<connection from="1854119797to1854119783" to="1854119783to1854119797" />
<connection from="1854119797to1854119783" to="1854119783to4231408859" />
<connection from="1854119797to1854119783" to="1854119783to1854119794" />
<connection from="4231408859to1854119783" to="1854119783to4231408862" />
<connection from="4231408859to1854119783" to="1854119783to1854119797" />
<connection from="4231408859to1854119783" to="1854119783to4231408859" />
<connection from="4231408859to1854119783" to="1854119783to1854119794" />
<connection from="1854119794to1854119783" to="1854119783to4231408862" />
<connection from="1854119794to1854119783" to="1854119783to1854119797" />
<connection from="1854119794to1854119783" to="1854119783to4231408859" />
<connection from="1854119794to1854119783" to="1854119783to1854119794" />
<connection from="4231408913to1854119788" to="1854119788to4231408913" />
<connection from="4231408913to1854119788" to="1854119788to1854119797" />
<connection from="4231408913to1854119788" to="1854119788to9833083756" />
<connection from="1854119797to1854119788" to="1854119788to4231408913" />
<connection from="1854119797to1854119788" to="1854119788to1854119797" />
<connection from="1854119797to1854119788" to="1854119788to9833083756" />
<connection from="9833083756to1854119788" to="1854119788to4231408913" />
<connection from="9833083756to1854119788" to="1854119788to1854119797" />
<connection from="9833083756to1854119788" to="1854119788to9833083756" />
<connection from="1854119783to1854119794" to="1854119794to1854119783" />
<connection from="1854119783to1854119794" to="1854119794to2265700200" />
<connection from="1854119783to1854119794" to="1854119794to3476101473" />
<connection from="2265700200to1854119794" to="1854119794to1854119783" />
<connection from="2265700200to1854119794" to="1854119794to2265700200" />
<connection from="2265700200to1854119794" to="1854119794to3476101473" />
<connection from="3476101473to1854119794" to="1854119794to1854119783" />
<connection from="3476101473to1854119794" to="1854119794to2265700200" />
<connection from="3476101473to1854119794" to="1854119794to3476101473" />
<connection from="1854119783to1854119797" to="1854119797to1854119783" />
<connection from="1854119783to1854119797" to="1854119797to1854119788" />
<connection from="1854119783to1854119797" to="1854119797to4231408865" />
<connection from="1854119788to1854119797" to="1854119797to1854119783" />
<connection from="1854119788to1854119797" to="1854119797to1854119788" />
<connection from="1854119788to1854119797" to="1854119797to4231408865" />
<connection from="4231408865to1854119797" to="1854119797to1854119783" />
<connection from="4231408865to1854119797" to="1854119797to1854119788" />
<connection from="4231408865to1854119797" to="1854119797to4231408865" />
<connection from="4231408579to2009503120" to="2009503120to4231408579" />
<connection from="4231408579to2009503120" to="2009503120to4231408563" />
<connection from="4231408579to2009503120" to="2009503120to2009503131" />
<connection from="4231408579to2009503120" to="2009503120to10002788872" />
<connection from="4231408563to2009503120" to="2009503120to4231408579" />
<connection from="4231408563to2009503120" to="2009503120to4231408563" />
<connection from="4231408563to2009503120" to="2009503120to2009503131" />
<connection from="4231408563to2009503120" to="2009503120to10002788872" />
<connection from="2009503131to2009503120" to="2009503120to4231408579" />
<connection from="2009503131to2009503120" to="2009503120to4231408563" />
<connection from="2009503131to2009503120" to="2009503120to2009503131" />
<connection from="2009503131to2009503120" to="2009503120to10002788872" />
<connection from="10002788872to2009503120" to="2009503120to4231408579" />
<connection from="10002788872to2009503120" to="2009503120to4231408563" />
<connection from="10002788872to2009503120" to="2009503120to2009503131" />
<connection from="10002788872to2009503120" to="2009503120to10002788872" />
<connection from="2009503120to2009503131" to="2009503131to2009503120" />
<connection from="2009503120to2009503131" to="2009503131to3195333365" />
<connection from="2009503120to2009503131" to="2009503131to4231408579" />
<connection from="3195333365to2009503131" to="2009503131to2009503120" />
<connection from="3195333365to2009503131" to="2009503131to3195333365" />
<connection from="3195333365to2009503131" to="2009503131to4231408579" />
<connection from="4231408579to2009503131" to="2009503131to2009503120" />
<connection from="4231408579to2009503131" to="2009503131to3195333365" />
<connection from="4231408579to2009503131" to="2009503131to4231408579" />
<connection from="58047707to2265700198" to="2265700198to58047707" />
<connection from="58047707to2265700198" to="2265700198to3476221608" />
<connection from="58047707to2265700198" to="2265700198to4231408833" />
<connection from="3476221608to2265700198" to="2265700198to58047707" />
<connection from="3476221608to2265700198" to="2265700198to3476221608" />
<connection from="3476221608to2265700198" to="2265700198to4231408833" />
<connection from="4231408833to2265700198" to="2265700198to58047707" />
<connection from="4231408833to2265700198" to="2265700198to3476221608" />
<connection from="4231408833to2265700198" to="2265700198to4231408833" />
<connection from="266442954to2265700200" to="2265700200to266442954" />
<connection from="266442954to2265700200" to="2265700200to1854119794" />
<connection from="266442954to2265700200" to="2265700200to3476098665" />
<connection from="1854119794to2265700200" to="2265700200to266442954" />
<connection from="1854119794to2265700200" to="2265700200to1854119794" />
<connection from="1854119794to2265700200" to="2265700200to3476098665" />
<connection from="3476098665to2265700200" to="2265700200to266442954" />
<connection from="3476098665to2265700200" to="2265700200to1854119794" />
<connection from="3476098665to2265700200" to="2265700200to3476098665" />
<connection from="3195333279to3195332949" to="3195332949to3195333279" />
<connection from="3195333279to3195332949" to="3195332949to3195333368" />
<connection from="3195333279to3195332949" to="3195332949to9874282860" />
<connection from="3195333368to3195332949" to="3195332949to3195333279" />
<connection from="3195333368to3195332949" to="3195332949to3195333368" />
<connection from="3195333368to3195332949" to="3195332949to9874282860" />
<connection from="9874282860to3195332949" to="3195332949to3195333279" />
<connection from="9874282860to3195332949" to="3195332949to3195333368" />
<connection from="9874282860to3195332949" to="3195332949to9874282860" />
<connection from="3195332949to3195333279" to="3195333279to3195332949" />
<connection from="3195332949to3195333279" to="3195333279to3195333283" />
<connection from="3195333283to3195333279" to="3195333279to3195332949" />
<connection from="3195333283to3195333279" to="3195333279to3195333283" />
<connection from="3195333283to3195333280" to="3195333280to3195333283" />
<connection from="3195333279to3195333283" to="3195333283to3195333279" />
<connection from="3195333279to3195333283" to="3195333283to3195333280" />
<connection from="3195333280to3195333283" to="3195333283to3195333279" />
<connection from="3195333280to3195333283" to="3195333283to3195333280" />
<connection from="2009503131to3195333365" to="3195333365to2009503131" />
<connection from="2009503131to3195333365" to="3195333365to3195333387" />
<connection from="2009503131to3195333365" to="3195333365to7728541935" />
<connection from="3195333387to3195333365" to="3195333365to2009503131" />
<connection from="3195333387to3195333365" to="3195333365to3195333387" />