<nodes>
<node id="58047704" x="325.50627310737036" y="19.31085774116218" />
<node id="58047707" x="294.14976666658185" y="75.62781455600634" />
<node id="58049717" x="-17.639034035848454" y="-449.05798678006977" />
<node id="58049718" x="2.551597758429125" y="-385.8339254837483" />
<node id="58049719" x="10.502258569700643" y="-344.1609567832202" />
<node id="58049720" x="-6.881527096498758" y="-222.89109692210332" />
<node id="58049722" x="-2.687740857480094" y="-104.92330572893843" />
<node id="58049725" x="114.29830990976188" y="68.47399767441675" />
<node id="58049728" x="364.4573969610501" y="95.15885441564023" />
<node id="58049737" x="523.649703807896" y="-349.0400632279925" />
<node id="58049742" x="304.05241453275084" y="-520.1289695142768" />
<node id="58049743" x="242.2872609156184" y="-510.9353968091309" />
<node id="58049744" x="163.31486936402507" y="-503.56021376652643" />
<node id="58049748" x="-6.851061885245144" y="-476.1355596994981" />
<node id="58053550" x="-52.97799523174763" y="246.4367916788906" />
<node id="266442952" x="319.1613245806657" y="732.0604474865831" />
<node id="266442954" x="133.53710054396652" y="452.9082427797839" />
<node id="266442955" x="76.33616405702196" y="383.7045287368819" />
<node id="266809236" x="74.72243776638061" y="-136.52908838400617" />
<node id="266809237" x="106.0198978955159" y="-199.36640954809263" />
<node id="266809238" x="189.99082741350867" y="-238.04799817642197" />
<node id="566993172" x="530.1079805314075" y="-882.6872725007124" />
<node id="566994353" x="262.96888655796647" y="-445.69528626231477" />
<node id="566995279" x="94.58099097269587" y="368.66854067798704" />
<node id="566995286" x="163.85384605266154" y="282.8927096151747" />
<node id="566995298" x="87.80616599682253" y="120.5778222726658" />
<node id="566995300" x="72.81959315761924" y="106.42694214591756" />
<node id="566995310" x="239.22311174450442" y="203.80166159709916" />
<node id="566995324" x="310.7760917280102" y="287.5782542489469" />
<node id="566995326" x="347.52309456304647" y="345.0606519128196" />
<node id="566995329" x="382.66497992526274" y="460.9282389357686" />
<node id="566995334" x="-21.27523997926619" y="575.7082099886611" />
<node id="566995335" x="232.6443574136356" y="381.92915618699044" />
<node id="566995342" x="-68.70134959788993" y="-471.95294481748715" />
<node id="1854115987" x="359.90207095700316" y="113.19155782228336" />
<node id="1854115992" x="535.183774254052" y="476.47184349782765" />
<node id="1854119783" x="83.73467375780456" y="734.2999267415144" />
<node id="1854119788" x="144.06566916930024" y="905.8653628202155" />
<node id="1854119794" x="250.4786817904096" y="633.1803836785257" />
<node id="1854119797" x="116.62452298239805" y="852.4208438228816" />
<node id="2009503120" x="-587.2922133905813" y="-447.6337351715192" />
<node id="2009503131" x="-646.0002417166252" y="-352.5838024117984" />
<node id="2265700198" x="302.6835053033428" y="96.34735554689541" />
<node id="2265700200" x="208.31397423474118" y="567.3076695832424" />
<node id="3195332949" x="-472.11900804471225" y="-119.17866355367005" />
<node id="3195333279" x="-491.6996886522975" y="-104.43194416444749" />
<node id="3195333280" x="-551.390871409676" y="-103.67806209111586" />
<node id="3195333283" x="-531.973139697453" y="-102.3194257072173" />
<node id="3195333365" x="-769.7799426286947" y="-309.21372284181416" />
<node id="3195333368" x="-550.4891775918659" y="-223.30507675837725" />
<node id="3195333387" x="-606.206204766524" y="-194.2868589698337" />
<node id="3195333393" x="-567.5886839955347" y="-185.97510894108564" />
<node id="3195333394" x="-554.5370404912392" y="-183.9107924234122" />
<node id="3195333396" x="-549.1864034770988" y="-183.12706556916237" />
<node id="3195333402" x="-568.8816109342733" y="-177.24022670369595" />
<node id="3476098662" x="339.700096369721" y="762.2765809525736" />
<node id="3476098664" x="366.03212671761867" y="604.3398871435784" />
<node id="3476098665" x="301.8423383291811" y="514.6538615669124" />
<node id="3476101473" x="276.93263425678015" y="661.1087055490352" />
<node id="3476104626" x="408.30557808629237" y="669.0178910703398" />
<node id="3476130223" x="392.578408787027" y="644.4651678893715" />
<node id="3476149008" x="324.41225514607504" y="741.0356352035888" />
<node id="3476149009" x="300.6245589230675" y="757.8334835097194" />
<node id="3476149011" x="292.5393592073815" y="776.7446839516051" />
<node id="3476167989" x="367.92047694465145" y="829.9596000993624" />
<node id="3476169616" x="382.50075744255446" y="823.216884911526" />
<node id="3476169617" x="462.1914453970967" y="948.7050004000776" />
<node id="3476221608" x="350.75360638508573" y="96.69583539431915" />
<node id="3476230992" x="174.81965537194628" y="274.1331636849791" />
<node id="3476240908" x="149.20232868741732" y="294.0911595444195" />
<node id="3476242095" x="233.80396609636955" y="374.64421495003626" />
<node id="3476266592" x="66.94265177089255" y="471.2388867046684" />
<node id="3476268417" x="-96.4164041877957" y="297.02654114738107" />
<node id="3476268418" x="-68.78785151941702" y="339.68671949766576" />
<node id="3476268419" x="-107.74699472251814" y="370.4684873702936" />
<node id="3476268445" x="-8.04960616515018" y="300.90605848794803" />
<node id="3476268728" x="-106.51647892629262" y="308.27420431468636" />
<node id="3476268731" x="-186.00360037887003" y="243.60305272741243" />
<node id="3476273428" x="-43.09548397245817" y="323.67637545010075" />
<node id="3476273431" x="50.32905275491066" y="402.5026879236102" />
<node id="3476273432" x="94.76422102760989" y="457.1187428627163" />
<node id="3476273433" x="100.85457611142192" y="479.2462986698374" />
<node id="4217073561" x="689.2826941807289" y="-876.3573212255724" />
<node id="4217073562" x="595.4930724250153" y="-819.6971515459009" />
<node id="4231408535" x="-160.88959862827323" y="-657.7382149943151" />
<node id="4231408538" x="-277.1043421821669" y="-613.9703821358271" />
<node id="4231408539" x="-118.72452968813013" y="-621.334877628833" />
<node id="4231408542" x="24.3043848258676" y="-602.1123054204509" />
<node id="4231408544" x="100.53948927531019" y="-585.2921058121137" />
<node id="4231408547" x="-98.5797430688981" y="-564.7415183051489" />
<node id="4231408548" x="-37.69863560819067" y="-558.0550553179346" />
<node id="4231408553" x="-65.06868597271387" y="-538.1503168558702" />
<node id="4231408557" x="96.69663079536986" y="-506.4268317571841" />
<node id="4231408558" x="71.61598234355915" y="-506.5029588053003" />
<node id="4231408563" x="-619.8869783417322" y="-501.7784617464058" />
<node id="4231408566" x="-685.7061789215077" y="-472.3319226433523" />
<node id="4231408568" x="185.85089157812763" y="-443.940794587601" />
<node id="4231408571" x="78.08261341426987" y="-424.4137996211648" />
<node id="4231408572" x="-142.85388227796648" y="-428.36951233120635" />
<node id="4231408574" x="-662.3381065302528" y="-428.79676379915327" />
<node id="4231408579" x="-654.9578728072811" y="-416.214017001912" />
<node id="4231408587" x="43.688699440448545" y="-353.3064809013158" />
<node id="4231408588" x="-736.684144374798" y="-390.0801354115829" />
<node id="4231408798" x="-59.31182791036554" y="-317.4507256629877" />
<node id="4231408801" x="45.62161391193513" y="-297.7179526910186" />
<node id="4231408803" x="72.38792908447795" y="-228.94262797152624" />
<node id="4231408829" x="172.799365524319" y="57.17001850483939" />
<node id="4231408832" x="-303.92799316346645" y="73.80612275749445" />
<node id="4231408833" x="184.37842860864475" y="85.98210577201098" />
<node id="4231408834" x="-293.81394895818084" y="88.37857088865712" />
<node id="4231408841" x="-316.74323875573464" y="145.50300596188754" />
<node id="4231408842" x="-377.66494521521963" y="151.0451728561893" />
<node id="4231408846" x="-232.01748563395813" y="198.7822407730855" />
<node id="4231408847" x="-268.2379350566771" y="223.18388527445495" />
<node id="4231408851" x="-131.24220774311107" y="332.5614480143413" />
<node id="4231408855" x="-220.76364632416517" y="419.27053828025237" />
<node id="4231408859" x="54.123374451417476" y="683.8984065935947" />
<node id="4231408862" x="6.041048278450035" y="799.2367653572" />
<node id="4231408865" x="31.437963478034362" y="861.8346201628447" />
<node id="4231408913" x="245.46696340211201" y="1065.0478646103293" />
<node id="4233299864" x="344.32987163530197" y="-146.7327279560268" />
<node id="4233299869" x="786.8636726125842" y="-112.57774307532236" />
<node id="4233299888" x="539.6135962195694" y="22.620256267488003" />
<node id="4233300989" x="586.1227546177106" y="57.28701625391841" />
<node id="4233301063" x="495.29043225815985" y="850.7020244323649" />
<node id="4233301197" x="445.73893235693686" y="968.0300172879361" />
<node id="6569145322" x="313.2346731936559" y="505.58066192502156" />
<node id="7728541935" x="-778.4653207010124" y="-345.02344390330836" />
<node id="9186487923" x="425.09210997028276" y="518.2255112263374" />
<node id="9186487925" x="414.7647914601257" y="-432.8280075653456" />
<node id="9717246533" x="110.38578268606216" y="208.05799167510122" />
<node id="9717246536" x="72.4741413271986" y="240.953476971481" />
<node id="9826967084" x="-298.4267618660815" y="92.8296774639748" />
<node id="9827255941" x="651.2737315379782" y="-689.1649921275675" />
<node id="9827255945" x="713.051692530862" y="-726.0057055209763" />
<node id="9827255946" x="689.3822710909881" y="-711.6009142659605" />
<node id="9827255947" x="673.4646530303871" y="-741.4011686043814" />
<node id="9827298800" x="387.2397664481541" y="435.86713603837416" />
<node id="9827298806" x="520.3912877530092" y="448.95364528289065" />
<node id="9827371419" x="250.17929153249133" y="409.4078340809792" />
<node id="9827426788" x="293.53411381226033" y="475.53499823994935" />
<node id="9827426790" x="367.00045112217776" y="424.2371427183971" />
<node id="9828201391" x="-318.01601029373705" y="-79.77163270767778" />
<node id="9832093896" x="45.25890594650991" y="669.569876969792" />
<node id="9832126091" x="727.9736354571069" y="528.290330145508" />
<node id="9832126093" x="724.0119105732301" y="457.9196752058342" />
<node id="9832164173" x="546.6540412339382" y="15.497246889397502" />
<node id="9832164191" x="398.2971279058838" y="-169.2594876261428" />
<node id="9832164195" x="413.2907748025609" y="-172.26975743938237" />
<node id="9832172062" x="-15.034677865915" y="-451.239314078819" />
<node id="9832189821" x="447.27159726212267" y="75.9813565663062" />
<node id="9832189827" x="378.9878330436768" y="-8.878763326443732" />
<node id="9832189836" x="180.22041822155006" y="-268.91159640671685" />
<node id="9832189843" x="182.2613656721078" y="-343.9181693983264" />
<node id="9832213062" x="571.3456480273744" y="-874.0694938139059" />
<node id="9832213064" x="612.2893460304476" y="-774.604104665108" />
<node id="9832213065" x="706.1732796683209" y="-832.1604097676463" />
<node id="9832213066" x="659.5626770412782" y="-706.276348806452" />
<node id="9832213067" x="684.1173463148298" y="-721.4522938225418" />
<node id="9832318660" x="32.605142698506825" y="531.216444815509" />
<node id="9832318668" x="-413.92890443850774" y="-42.62115672091022" />
<node id="9833059513" x="494.71537534019444" y="752.1779937171377" />
<node id="9833067817" x="382.1830119319493" y="628.7450235728174" />
<node id="9833067818" x="424.062330283341" y="601.0775314611383" />
<node id="9833067819" x="273.53809956263285" y="445.0405785390176" />
<node id="9833067829" x="257.79090995527804" y="421.019873123616" />
<node id="9833083756" x="99.78676036512479" y="906.0848778001964" />
<node id="9834940963" x="433.9823193575721" y="-198.01481043966487" />
<node id="9835418072" x="626.9363440365996" y="-894.6703214892186" />
<node id="9835418106" x="103.72714117122814" y="-78.43368622520939" />
<node id="9835425106" x="580.0099573300686" y="-289.5501197837293" />
<node id="9835425112" x="710.1308287723223" y="-290.28627765504643" />
<node id="9837598402" x="350.41442224394996" y="350.2792104035616" />
<node id="9837598412" x="367.83023184817284" y="381.6250680908561" />
<node id="9855232630" x="410.3341118214885" y="-1053.2561872177757" />
<node id="9874282857" x="-475.85355822951533" y="-73.82539442088455" />
<node id="9874282860" x="-431.9046317904722" y="-97.36780917039141" />
<node id="9971670763" x="279.9055398852797" y="-440.82148582302034" />
<node id="9971670765" x="413.0819937393535" y="-400.9629983701743" />
<node id="9971670766" x="358.5982637851266" y="-385.66278731264174" />
<node id="9971670768" x="336.7509997272864" y="-440.54737770278007" />
<node id="9971670769" x="341.4143451572163" y="-428.8223632853478" />
<node id="9971670770" x="383.5695179408649" y="-447.7381242290139" />
<node id="10002788872" x="-195.74638012854848" y="-507.19412194378674" />
<node id="10002788873" x="-246.7348483458627" y="-625.4069959172048" />
</nodes>