<nodes>
<node id="58049717" x="1359.9031998708379" y="-2756.569057113491" />
<node id="58049718" x="1380.0938316651154" y="-2693.3449958171695" />
<node id="58049719" x="1388.044492476387" y="-2651.6720271166414" />
<node id="58049720" x="1370.6607068101875" y="-2530.4021672555245" />
<node id="58049722" x="1374.8544930492062" y="-2412.4343760623597" />
<node id="58049737" x="1901.1919377145823" y="-2656.5511335614137" />
<node id="58049742" x="1681.5946484394372" y="-2827.640039847698" />
<node id="58049743" x="1619.8294948223047" y="-2818.446467142552" />
<node id="58049744" x="1540.8571032707114" y="-2811.0712840999477" />
<node id="58049748" x="1370.6911720214412" y="-2783.6466300329193" />
<node id="58053550" x="1324.5642386749387" y="-2061.0742786545306" />
<node id="58056528" x="1965.1303981144447" y="-420.5765323257074" />
<node id="60890393" x="2309.163161523873" y="1939.2623692923225" />
<node id="175610054" x="4114.880377037916" y="710.1108072157949" />
<node id="246513647" x="1510.3908728013048" y="3501.2888717092574" />
<node id="246518180" x="2826.101977477665" y="4311.57160367351" />
<node id="248852486" x="-203.70405048667453" y="-3800.9803319307975" />
<node id="249782331" x="6778.278244939167" y="7677.386467389762" />
<node id="249782337" x="6567.343460649718" y="7569.006424159277" />
<node id="249782343" x="6373.636208573473" y="7691.246659050696" />
<node id="249782349" x="6379.314829440555" y="7925.5290435170755" />
<node id="249783257" x="6860.569147337694" y="7953.650276167318" />
<node id="249783291" x="6704.049485346535" y="7503.960300308652" />
<node id="249783293" x="6564.401884726249" y="7480.367572897114" />
<node id="249783302" x="6293.002645006636" y="7645.547395968344" />
<node id="249783308" x="6316.281748153968" y="7964.615908415988" />
<node id="249783313" x="6492.159586073365" y="8110.1250006756745" />
<node id="249783316" x="6591.327524365508" y="8126.71240436798" />
<node id="249786848" x="6523.011197991786" y="6429.782899399288" />
<node id="249786894" x="7301.889736542711" y="6366.511901528109" />
<node id="249786895" x="7308.564137629932" y="6348.520183767192" />
<node id="249786899" x="7745.801775787841" y="7053.853978966828" />
<node id="249786900" x="7759.904785383958" y="7073.929685834795" />
<node id="249786902" x="7807.7193925014" y="7083.425964948721" />
<node id="249786916" x="8028.812592874165" y="5379.696435905527" />
<node id="249786918" x="7769.18778762361" y="5245.675308612641" />
<node id="249786921" x="7452.374994777609" y="5392.8900055047125" />
<node id="249791141" x="8624.038491471903" y="5628.203915328719" />
<node id="249791143" x="8618.713320181007" y="5238.717247617897" />
<node id="249791204" x="5878.627414420247" y="5678.273360915948" />
<node id="249791377" x="7672.855647767545" y="5248.33530585235" />
<node id="249791380" x="7696.773661836283" y="4514.01723033702" />
<node id="249791853" x="7553.2579171893885" y="5325.521119989455" />
<node id="249791934" x="5607.487718076329" y="6256.725015849806" />
<node id="249823668" x="7898.08343455859" y="5309.9461273155175" />
<node id="249823983" x="2502.1385640793014" y="-852.9149627848528" />
<node id="249824096" x="-2320.991018504603" y="402.39856134634465" />
<node id="250078355" x="5374.540028085001" y="753.7699923440814" />
<node id="250078357" x="5661.6157377206255" y="1013.0918646692298" />
<node id="250078364" x="1851.4545580325648" y="-1289.2706681848504" />
<node id="250102742" x="6997.854315980105" y="3871.1941285100766" />
<node id="251685586" x="-5794.872259673313" y="-3185.7258835183457" />
<node id="251691508" x="-1402.5955620711902" y="-8430.565844360273" />
<node id="251691509" x="-1050.4878159689251" y="-8224.727924286854" />
<node id="266378046" x="32.65374347381294" y="-3995.3307030717842" />
<node id="266442952" x="1696.703558487352" y="-1575.450622846838" />
<node id="266442954" x="1511.0793344506528" y="-1854.6028275536373" />
<node id="266442955" x="1453.8783979637083" y="-1923.8065415965393" />
<node id="266807256" x="3860.2787689312827" y="6217.493827599101" />
<node id="266807274" x="4209.773143202881" y="6543.146640999708" />
<node id="266807277" x="4611.889630388003" y="6759.089808568824" />
<node id="266809236" x="1452.264671673067" y="-2444.0401587174274" />
<node id="266809237" x="1483.5621318022022" y="-2506.877479881514" />
<node id="266809238" x="1567.533061320195" y="-2545.559068509843" />
<node id="266809747" x="3478.5922868561465" y="4777.56919602491" />
<node id="267075193" x="7794.3477719625225" y="5973.526298972312" />
<node id="267075194" x="7746.932812068146" y="6037.25615349412" />
<node id="267075196" x="7399.217357033165" y="5625.190633551218" />
<node id="267075198" x="7136.273120327154" y="5279.916424744297" />
<node id="267075204" x="8073.659802299924" y="5599.158265010919" />
<node id="267075205" x="7706.232071627863" y="5563.350167487748" />
<node id="267075208" x="7680.479765732074" y="5614.335375294089" />
<node id="267075211" x="7710.350768847973" y="5662.477755561005" />
<node id="267075214" x="7766.547901372076" y="5660.333246352617" />
<node id="267075220" x="7762.949617808568" y="5560.605528729036" />
<node id="267075223" x="7916.280563951819" y="5894.180582767818" />
<node id="267075227" x="8081.497748808935" y="5747.770388741046" />
<node id="267075233" x="7142.379440085264" y="6022.264758169651" />
<node id="267086487" x="-302.23425257904455" y="-7854.124538632575" />
<node id="267086490" x="-378.58502912754193" y="-7759.539115534164" />
<node id="267086491" x="-395.036660937476" y="-7747.061959232204" />
<node id="267193160" x="3831.458163896925" y="4458.6350963427685" />
<node id="267193179" x="4534.255901677767" y="3810.5409509069286" />
<node id="267193217" x="1838.765751822386" y="2791.3992608035915" />
<node id="267193232" x="2119.822584602167" y="3026.8320282180794" />
<node id="267193233" x="2294.047150356695" y="3144.797850678675" />
<node id="267193236" x="2470.4446917377645" y="3395.932875089813" />
<node id="267193237" x="2569.2943078139797" y="3604.927542237565" />
<node id="267193238" x="2960.826478922507" y="4179.825476584025" />
<node id="267193239" x="3120.480643400224" y="4122.815692943521" />
<node id="267193242" x="3116.6611050285865" y="3711.822409626562" />
<node id="267193245" x="2871.3734411003534" y="3110.8151217545383" />
<node id="267193248" x="2731.7882387448335" y="3183.3167376453057" />
<node id="267193250" x="2653.518350583501" y="3257.4128196560778" />
<node id="267193290" x="3409.9595661080675" y="3740.127949131187" />
<node id="267193295" x="2860.5742469315883" y="3035.440534051042" />
<node id="267193307" x="3701.0234379469184" y="2649.218999089673" />
<node id="267193347" x="4646.962852555211" y="1884.995901953429" />
<node id="267193355" x="3817.9973920572083" y="2606.11491146544" />
<node id="267193358" x="3707.677742106025" y="2453.418531384319" />
<node id="267193361" x="3551.1258791780565" y="2350.5440039657988" />
<node id="267193383" x="2214.027010636404" y="3086.492210499011" />
<node id="267193386" x="2339.7168470530305" y="2948.188655535225" />
<node id="267193390" x="2514.21909967158" y="2975.0206994926557" />
<node id="267193394" x="2696.39444105234" y="3135.011195225641" />
<node id="267194402" x="-8947.673759383382" y="22.90174047416076" />
<node id="267194416" x="-8300.936935730977" y="726.7287785578519" />
<node id="267194420" x="-8660.504731704597" y="-169.41454841708764" />
<node id="267196276" x="6498.652703528875" y="5656.277532540262" />
<node id="267196295" x="5918.772420706926" y="6067.176398794632" />
<node id="267196297" x="5927.591045812471" y="6020.431285208557" />
<node id="267196303" x="5856.794772427762" y="6017.6024642535485" />
<node id="267196304" x="5851.782916289987" y="6043.674613534007" />
<node id="267196305" x="6027.838662850205" y="6108.619960380718" />
<node id="267196308" x="6060.621018819278" y="6030.976165311411" />
<node id="267196309" x="5979.219523668406" y="6084.193649474997" />
<node id="267196314" x="6515.171247242717" y="6194.363074798603" />
<node id="267196319" x="6912.549234384205" y="5994.663142473903" />
<node id="267196320" x="6817.207175569376" y="6531.392251758836" />
<node id="267196323" x="7095.527501359116" y="5244.478671432938" />
<node id="267196328" x="7125.233308070339" y="5298.525503600016" />
<node id="267196331" x="7114.657217768254" y="5244.346681284253" />
<node id="267196336" x="6859.45586971764" y="6450.489314308856" />
<node id="267196337" x="6786.628736937768" y="6596.025967119727" />
<node id="267196340" x="7016.285756592406" y="6206.311812120024" />
<node id="267196343" x="5890.331349498127" y="6114.866664330009" />
<node id="267196344" x="5549.5987462284975" y="5691.360247359611" />
<node id="267196357" x="5590.40826160484" y="5688.522003205959" />
<node id="267197815" x="7370.573250919464" y="6374.487887362018" />
<node id="267197829" x="7775.337003763299" y="6718.381528461818" />
<node id="267197830" x="7294.256055983715" y="6455.442072928883" />
<node id="267197831" x="7610.679867806146" y="6848.252442508936" />
<node id="267197832" x="7704.620909549878" y="6678.423511900008" />
<node id="267197833" x="7589.654535854468" y="4432.604743273463" />
<node id="267197834" x="7646.72328384826" y="4401.860090100672" />
<node id="267197844" x="7157.684413428768" y="4675.9240133864805" />
<node id="267197856" x="7707.017337816069" y="4520.871486106422" />
<node id="267197860" x="7048.3792393214535" y="4523.597578575835" />
<node id="267197863" x="7100.642199091497" y="4593.851237619296" />
<node id="267197867" x="7022.738004220184" y="4537.090365563985" />
<node id="267197868" x="7021.178844195674" y="4544.644803585019" />
<node id="267197869" x="7023.915480757365" y="4572.701118409168" />
<node id="267197870" x="7041.705738827004" y="4602.046196529642" />
<node id="267197874" x="7094.956341827288" y="4615.486875509378" />
<node id="267197876" x="6481.783446646063" y="4853.066471786238" />
<node id="267197883" x="6390.7431544788415" y="4976.55988444807" />
<node id="267197887" x="6455.106310996343" y="5019.583873223513" />
<node id="267197888" x="6494.253381660441" y="5017.382954630535" />
<node id="267197891" x="6541.362439094111" y="4995.783762220293" />
<node id="267197893" x="6557.2756064833375" y="4968.117958300747" />
<node id="267197897" x="6526.237413182389" y="4883.9141231924295" />
<node id="267197917" x="5894.078369114897" y="5293.625431073364" />
<node id="267197918" x="5902.124291628948" y="5334.673471901566" />
<node id="267197925" x="5830.593795932364" y="5299.901596671436" />
<node id="267197928" x="5871.274362170603" y="5493.475562433712" />
<node id="267197930" x="5582.157403765479" y="5122.0015690801665" />
<node id="267197931" x="5557.90031530289" y="5109.990062261466" />
<node id="267197934" x="5524.702985154116" y="5119.055772067513" />
<node id="267197936" x="5508.642421545461" y="5153.793406364042" />
<node id="267197937" x="5511.12050477555" y="5166.888287534006" />
<node id="267197938" x="5524.681907146121" y="5185.897510545794" />
<node id="267197939" x="5535.755194008816" y="5192.35492907092" />
<node id="267197941" x="5564.999808495631" y="5193.349571952596" />
<node id="267197943" x="5579.469714408275" y="5185.412614871282" />
<node id="267197944" x="5594.799338534591" y="5155.827997772954" />
<node id="267197955" x="7217.233093924704" y="4627.451293162536" />
<node id="267197956" x="7359.902815501206" y="4857.876053325832" />
<node id="267197957" x="7466.9674633588875" y="4813.914851250127" />
<node id="267197959" x="7715.396685277461" y="5082.004271795973" />
<node id="267197960" x="7335.993290581275" y="4564.991712064017" />
<node id="267197961" x="7417.558164898423" y="4699.353711664211" />
<node id="267197963" x="7562.591044646688" y="4652.053702630103" />
<node id="267197965" x="7570.765963584068" y="4537.855597674847" />
<node id="267197967" x="7954.282431941479" y="4979.273767509498" />
<node id="267197973" x="7830.497536559589" y="4953.425560744479" />
<node id="267197974" x="7890.437538198894" y="4950.13165103551" />
<node id="267197975" x="7988.660821702564" y="4994.617025902495" />
<node id="267197976" x="8071.505911386572" y="4833.6406870838255" />
<node id="267197980" x="7705.688693977427" y="4769.45997513691" />
<node id="267197983" x="7791.186923791771" y="5079.18295163149" />
<node id="267197984" x="7777.04987978423" y="4767.099063337315" />
<node id="267197985" x="7781.666579425102" y="4955.452466121875" />
<node id="267197986" x="7921.680092171184" y="5116.154346065596" />
<node id="267198388" x="6437.300510933972" y="7513.885074655991" />
<node id="267198390" x="6785.981051164796" y="7915.476882219315" />
<node id="267198392" x="6588.432190065854" y="8036.677358886693" />
<node id="267198394" x="6583.896827970981" y="7928.030230031814" />
<node id="267247451" x="7145.6051243495895" y="7823.217772269156" />
<node id="267247452" x="7136.334883626201" y="7792.0793316918425" />
<node id="267247454" x="7070.984150686767" y="7681.711773874704" />
<node id="267247456" x="7006.792784197023" y="7659.307737549767" />
<node id="267247457" x="6995.663889994496" y="7664.943447860889" />
<node id="267247458" x="6940.795621515252" y="7579.373729140032" />
<node id="267247460" x="6887.581541620195" y="7704.076229264494" />
<node id="267247462" x="7258.017855294049" y="7722.291835701559" />
<node id="267247464" x="6936.833062540973" y="7890.6872052373365" />
<node id="267247468" x="7091.469132138765" y="7862.865531322081" />
<node id="267249900" x="5286.602437458001" y="7069.313843172975" />
<node id="267249902" x="5262.0635244137375" y="7087.098675688729" />
<node id="267249903" x="5246.20190121152" y="7118.636081795208" />
<node id="267249905" x="5246.134031910216" y="7146.695467730984" />
<node id="267249908" x="5310.785002048709" y="7202.247308935039" />
<node id="267249911" x="5369.228445411893" y="7175.443118446041" />
<node id="267249912" x="5379.988101101015" y="7155.874065215699" />
<node id="267249914" x="5380.673914902145" y="7111.850001747254" />
<node id="267249915" x="5357.894829987083" y="7078.823130333796" />
<node id="267249920" x="5881.58923009038" y="6726.3202189113945" />
<node id="267249923" x="5892.778169883764" y="6787.748729919549" />
<node id="267249926" x="5933.914292109781" y="6792.967060146853" />
<node id="267249927" x="5958.764847865677" y="6770.067166018765" />
<node id="267249930" x="5959.1642506045755" y="6733.698679041583" />
<node id="267249940" x="7819.188008073252" y="7077.98577722488" />
<node id="267249941" x="7828.888058774755" y="7069.818435358349" />
<node id="267249943" x="7840.879784486722" y="7032.180368483532" />
<node id="267249944" x="7835.480104913935" y="7012.267096727621" />
<node id="267249946" x="7809.440597016597" y="6990.2055656109005" />
<node id="267249954" x="6188.5120898558525" y="6551.13363997452" />
<node id="267249955" x="6188.533279807307" y="6564.770848354325" />
<node id="267249959" x="6215.6350411446765" y="6590.418089909013" />
<node id="267249960" x="6231.09374928847" y="6589.2411541962065" />
<node id="267249962" x="6250.232573524001" y="6573.187387668993" />
<node id="267249964" x="6252.275535931345" y="6547.415079015773" />
<node id="267249967" x="6222.2376254696865" y="6525.006128185429" />
<node id="267250972" x="7250.813887047931" y="7388.595950230025" />
<node id="267250973" x="7180.215315925656" y="7287.321254141629" />
<node id="267250978" x="6951.859504389344" y="7110.813777151983" />
<node id="267250981" x="6548.991986426758" y="7097.550743944012" />
<node id="267250993" x="6199.779325743089" y="7134.987360509578" />
<node id="267250994" x="6174.025078097824" y="7152.293295376468" />
<node id="267250995" x="6137.334819711978" y="7172.223759336397" />
<node id="267250999" x="5785.765238421503" y="7004.212157483678" />
<node id="267251003" x="5910.146775586763" y="7279.992780920118" />
<node id="267251006" x="5716.869612361421" y="7118.440186336171" />
<node id="267251007" x="5700.219600095064" y="7331.109974655788" />
<node id="267251008" x="5715.064333703485" y="7052.617640778888" />
<node id="267251009" x="5941.743411281961" y="7087.633614218794" />
<node id="267251014" x="6538.110237666173" y="6874.347295507789" />
<node id="267251015" x="6351.711964305141" y="6873.582605539355" />
<node id="267251016" x="6222.3303846642375" y="6610.254596870393" />
<node id="267251019" x="6735.837488476653" y="6680.7949214288965" />
<node id="267251573" x="7118.810455091996" y="6771.94438131433" />
<node id="267251574" x="6739.5799859984545" y="6862.1350699714385" />
<node id="267251575" x="6771.2898228782" y="6886.073309939355" />
<node id="267251576" x="6781.627546645701" y="7088.8340786551125" />
<node id="267251581" x="6839.595875042374" y="6805.787694404367" />
<node id="267251584" x="6947.48925319477" y="6863.494457104243" />
<node id="267251585" x="7019.4226678614505" y="6722.9201154168695" />
<node id="267251586" x="6697.305342611624" y="6858.189875842072" />
<node id="267251588" x="7572.093892585719" y="6924.509386123158" />
<node id="267251591" x="7430.139309369959" y="7127.713720428292" />
<node id="267251592" x="7524.20232630067" y="7074.36546061188" />
<node id="267251594" x="7517.1846248894" y="7038.9004686907865" />
<node id="267251597" x="7271.257294731098" y="7227.972294071224" />
<node id="267251598" x="7146.485873068916" y="7108.204783322755" />
<node id="267251601" x="7335.816926187719" y="7188.729999681003" />
<node id="267253204" x="6207.441859373823" y="6202.1824597683735" />
<node id="267253206" x="6099.486555413576" y="6496.422585507855" />
<node id="267253207" x="6097.485156443785" y="6302.37703035539" />
<node id="267253209" x="6012.1315492592985" y="6555.383193075657" />
<node id="267253210" x="4670.873700636439" y="6746.5052348244935" />
<node id="267253212" x="4654.317348410375" y="6761.64436582569" />
<node id="267253217" x="4654.788897648803" y="6806.188432411756" />
<node id="267253220" x="4675.551644764957" y="6815.4953540423885" />
<node id="267253223" x="4719.229486205499" y="6792.640204254538" />
<node id="267253224" x="4721.44357538654" y="6778.11299290508" />
<node id="267253225" x="4718.639552932116" y="6766.231832507998" />
<node id="267253228" x="4694.515082539525" y="6745.044509376865" />
<node id="267253231" x="4719.936851313687" y="6823.296958166175" />
<node id="267259245" x="5470.735452773282" y="7469.865374215879" />
<node id="267259246" x="5618.1216924631735" y="7457.999281604774" />
<node id="267259248" x="5313.493380332016" y="7018.4451685538515" />
<node id="267259250" x="4752.638326806016" y="6748.941553375218" />
<node id="267259251" x="5252.094187372713" y="6437.251912374515" />
<node id="267259252" x="4878.133623834699" y="6673.6454347949475" />
<node id="267259254" x="5723.662792898482" y="6643.218779372051" />
<node id="267259255" x="4882.526539022336" y="6770.790808281396" />
<node id="267259256" x="4827.470623459434" y="6868.581764945295" />
<node id="267259262" x="5806.57377899671" y="6762.483211298939" />
<node id="267259263" x="5832.9377574287355" y="6801.054212019313" />
<node id="267259265" x="5572.554074221756" y="6540.455715187825" />
<node id="267259266" x="5563.387173260213" y="6588.136927408166" />
<node id="267259267" x="5571.559803310782" y="6644.0212715948" />
<node id="267259269" x="5610.263903564541" y="6712.044537006412" />
<node id="267259270" x="5320.032964051468" y="6391.220556782093" />
<node id="267259274" x="5324.111348572187" y="6435.265974237584" />
<node id="267259278" x="5250.973473813967" y="6397.784513166174" />
<node id="267259280" x="5547.098492715042" y="6553.766231105197" />
<node id="267259282" x="5695.3637351675425" y="6399.2181914728135" />
<node id="267259283" x="5169.706388431834" y="6632.355825988576" />
<node id="267259287" x="5113.870113355573" y="6672.568797778338" />
<node id="267259291" x="5174.699698414421" y="6705.310158623848" />
<node id="267259320" x="5289.246774668107" y="6556.089204926044" />
<node id="267259322" x="5299.194943839451" y="6815.304240051191" />
<node id="267259325" x="4948.923860707786" y="6629.848754185252" />
<node id="267259326" x="4650.695203399053" y="6083.369634338655" />
<node id="267259327" x="4675.374896653346" y="6679.4579283003695" />
<node id="267259328" x="5235.893646433717" y="6058.129360870458" />
<node id="267259329" x="4881.7471955028595" y="6069.0190662145615" />
<node id="267259331" x="5245.2152849135455" y="6035.40715747932" />
<node id="267259409" x="5265.06042594742" y="6096.62851442676" />
<node id="267259412" x="5289.027309191879" y="6094.044033999555" />
<node id="267259413" x="5240.863376608817" y="5916.000075757969" />
<node id="267259414" x="5292.755450162105" y="5913.199000006542" />
<node id="267259415" x="4952.916873964481" y="5923.031588038895" />
<node id="267259416" x="5147.232919396716" y="5918.486272325274" />
<node id="267259417" x="5149.372109623742" y="6059.793128527701" />
<node id="267259418" x="5385.549313462689" y="5910.4656957909465" />
<node id="267259419" x="5406.751973890467" y="5945.292603251524" />
<node id="267259426" x="4860.224731685012" y="6222.018763476983" />
<node id="267259433" x="4971.543080268428" y="6065.373697839677" />
<node id="267259435" x="4947.106138786068" y="6234.195843709167" />
<node id="267259436" x="5041.004461132921" y="6426.141537470277" />
<node id="267259438" x="4982.504661396728" y="6391.625736515969" />
<node id="267259442" x="4987.16080710094" y="6450.571084649768" />
<node id="267259450" x="4862.7782189438585" y="6282.03394318372" />
<node id="267259454" x="4771.9200530525995" y="6398.212942122947" />
<node id="267259455" x="4782.493524266756" y="6732.49526879983" />
<node id="267259456" x="4715.831634808797" y="6730.64716733573" />
<node id="267259457" x="4707.238645013189" y="6524.6527665145695" />
<node id="267259458" x="4703.872222152539" y="6399.277530471329" />
<node id="267259460" x="4667.631605227361" y="6398.533013707027" />
<node id="267259461" x="4671.615085864207" y="6525.482791391667" />
<node id="267259467" x="4709.526373915374" y="6568.8422272312455" />
<node id="267259470" x="4638.931276027928" y="6731.792939650826" />
<node id="267259476" x="4578.727906895103" y="6740.995970662683" />
<node id="267259478" x="4636.508196958923" y="6526.943286867347" />
<node id="267259479" x="4617.961393212085" y="6084.984815828502" />
<node id="267259480" x="4551.921728960122" y="6086.342364647426" />
<node id="267259482" x="4553.973733540624" y="6728.500453933142" />
<node id="267259483" x="4570.692991318763" y="6626.854505424853" />
<node id="267259484" x="4637.675961552071" y="6625.104453553446" />
<node id="267259485" x="4676.002318170504" y="6624.102354555856" />
<node id="267259486" x="4711.3336341241375" y="6623.189380822703" />
<node id="267259487" x="4778.727433635504" y="6621.447693909518" />
<node id="267259488" x="4499.8426035152515" y="6090.340571765788" />
<node id="267259489" x="4631.997700413922" y="6398.8419232484885" />
<node id="267259490" x="4564.425675874227" y="6399.572385859676" />
<node id="267259921" x="4410.188748999964" y="6094.812554163858" />
<node id="267259924" x="4423.458487124997" y="6121.198853718117" />
<node id="267259925" x="4438.0026817847975" y="6128.805551534984" />
<node id="267259928" x="4467.729103549966" y="6124.739869439974" />
<node id="267259930" x="4485.136218493222" y="6099.006099017337" />
<node id="267259931" x="4485.180834476487" y="6083.274885370862" />
<node id="267259947" x="4241.95374274021" y="6098.529399591032" />
<node id="267259951" x="4419.492624307051" y="6145.893658463843" />
<node id="267259952" x="4289.031245010556" y="6393.989529834129" />
<node id="267259957" x="4263.089012786513" y="6439.2013051719405" />
<node id="267259965" x="4360.94755272218" y="6249.986283936538" />
<node id="267259966" x="4436.189942145022" y="6289.174650738016" />
<node id="267609414" x="4033.6962714120746" y="4409.025357122999" />
<node id="267609419" x="4092.9777664516587" y="4383.471093672328" />
<node id="267609496" x="4641.604964620201" y="4674.326108711772" />
<node id="267609498" x="4603.036742031807" y="4607.773180028424" />
<node id="267609499" x="4569.5441674694885" y="4622.7675936594605" />
<node id="267609602" x="5545.630413163803" y="5503.654328052886" />
<node id="268210753" x="887.9280517330626" y="-1986.5795268886723" />
<node id="268210760" x="1441.3937265122076" y="-295.08011840470135" />
<node id="268210762" x="1178.2116180348676" y="-539.28946011886" />
<node id="268212026" x="1220.074689176865" y="2089.513347616885" />
<node id="268212048" x="1795.2409366716165" y="2819.434812652413" />
<node id="268212523" x="2036.8944238524418" y="5108.621398476884" />
<node id="268212543" x="2798.746262599132" y="6724.197481343057" />
<node id="268212552" x="2281.9605241611134" y="7415.030018124264" />
<node id="271335733" x="-1036.0587831045268" y="-8246.831460965332" />
<node id="271335992" x="-291.5064458770212" y="-7871.836805915926" />
<node id="271335993" x="-1393.3762500730809" y="-8445.589759145863" />
<node id="273278130" x="-3187.5695435837843" y="-2331.9862128640525" />
<node id="273317191" x="3111.493082219269" y="3866.8623782931827" />
<node id="273317193" x="3676.3911710918183" y="3628.180474574212" />
<node id="277419819" x="-485.498009430361" y="2443.023211061023" />
<node id="277793202" x="-5647.436572460458" y="-2935.7290387940593" />
<node id="278165412" x="-3251.9541762326844" y="-2517.583599673584" />
<node id="278165418" x="-5695.115874952753" y="-2913.613696233835" />
<node id="278166186" x="119.63728101295419" y="-3999.7680139723234" />
<node id="280740599" x="626.7067353064194" y="-248.76188925188035" />
<node id="280740678" x="2428.1683116871864" y="1732.755411671009" />
<node id="280740682" x="2436.7543971836567" y="1713.7207925654948" />
<node id="280740684" x="2600.8848208002746" y="1391.793790067546" />
<node id="280740686" x="2293.3291301303543" y="1937.1121682138182" />
<node id="280740689" x="2581.0818854619283" y="1392.5865875491872" />
<node id="280740702" x="2557.548647835618" y="1419.298294492066" />
<node id="280740936" x="2754.022865752573" y="6705.388145098463" />
<node id="280741019" x="3612.170391702559" y="7858.7955209435895" />
<node id="280741024" x="3653.131656987127" y="7884.036477966234" />
<node id="280741115" x="4376.243825590005" y="9112.082892050967" />
<node id="282003063" x="1200.1754253826803" y="203.78213371150196" />
<node id="282138878" x="1332.9481071208138" y="-224.91237516049296" />
<node id="282138881" x="1254.7928524110466" y="-242.8320291917771" />
<node id="282138883" x="1272.9397933244472" y="-334.9533630772494" />
<node id="282138885" x="1690.534032721538" y="1315.835713940207" />
<node id="287137048" x="-4452.45025153528" y="-1775.2751575796865" />
<node id="292443382" x="4991.689460525522" y="790.9590699002147" />
<node id="292443383" x="5085.835090115084" y="802.5800714767538" />
<node id="292443384" x="5395.929043345503" y="789.6968794302084" />
<node id="292443385" x="5214.048955784412" y="796.1922529847361" />
<node id="292460373" x="5216.773180588498" y="877.3525202129968" />
<node id="292460374" x="5485.066643329104" y="1117.5988544905558" />
<node id="292460387" x="5752.563233704423" y="1781.6055898759514" />
<node id="292460390" x="5726.674649414606" y="1857.0606899685226" />
<node id="292460393" x="5723.751733628567" y="1839.389919159934" />
<node id="292460398" x="5665.622878224705" y="1111.006035384722" />
<node id="292460403" x="5797.741822967539" y="1646.7713812231086" />
<node id="301037181" x="5237.671217816183" y="4243.294984865934" />
<node id="301037183" x="5190.992263118853" y="4228.287905765232" />
<node id="301037185" x="5246.058321686462" y="4276.632192200981" />
<node id="301037187" x="5279.229637826909" y="4993.314229501877" />
<node id="301037212" x="2756.4555973287206" y="6761.331073969603" />
<node id="301037214" x="2744.7834485644707" y="6760.9075369662605" />
<node id="301037382" x="1988.9327751764795" y="-399.9346011336893" />
<node id="308719791" x="8596.555602133623" y="6983.7540039960295" />
<node id="308719942" x="8535.567627802026" y="7002.778513042722" />
<node id="308883156" x="6462.843350644223" y="4267.751878512558" />
<node id="308883222" x="6436.624292589491" y="4270.2038305397145" />
<node id="308883223" x="6403.07868726342" y="4237.175259331241" />
<node id="308883229" x="6457.6632735980675" y="4185.635513219051" />
<node id="308883230" x="6474.395807719324" y="4194.560183002148" />
<node id="308883231" x="6488.588553014677" y="4237.030874373857" />
<node id="308883582" x="6413.808005952975" y="4197.816343520768" />
<node id="308884276" x="5682.795164531446" y="3207.568947120104" />
<node id="308884530" x="5977.963673562277" y="3218.5221288339235" />
<node id="308884930" x="5834.579033034155" y="4645.721682797186" />
<node id="308884941" x="5881.764953197213" y="4598.799028084148" />
<node id="308884943" x="5854.846696361434" y="4566.094175916165" />
<node id="308884948" x="5827.574521477916" y="4565.756259663962" />
<node id="308884952" x="5799.660397402011" y="4599.088179343846" />
<node id="308884954" x="5809.345867437893" y="4631.951051960234" />
<node id="308885274" x="5865.899128984194" y="4637.73069589911" />
<node id="308887717" x="5065.517137416638" y="4901.700755823869" />
<node id="308887829" x="5126.214054607553" y="5052.589926684275" />
<node id="308887830" x="5041.241742494982" y="4940.555971780326" />
<node id="308887831" x="5089.564616180956" y="4859.293625934515" />
<node id="308887832" x="5233.774483543122" y="4854.268640263472" />
<node id="308888616" x="4458.717545895604" y="5373.727665970568" />
<node id="308888625" x="4383.6114921390545" y="5377.381127642468" />
<node id="308888862" x="3822.991578299552" y="5294.157295582816" />
<node id="308890952" x="7079.940654236358" y="4285.894169144798" />
<node id="308890954" x="7292.092185839079" y="4079.6552386363037" />
<node id="309642106" x="4405.535180544015" y="9173.787315594498" />