<nodes>
<node id="249782331" x="-70.85137385455891" y="1415.1456543854438" />
<node id="249782337" x="-281.78615814400837" y="1306.7656111549586" />
<node id="249782343" x="-475.4934102202533" y="1429.005846046377" />
<node id="249782349" x="-469.81478935317136" y="1663.2882305127569" />
<node id="249783257" x="11.439528543967754" y="1691.4094631629996" />
<node id="249783291" x="-145.08013344719075" y="1241.7194873043336" />
<node id="249783293" x="-284.7277340674773" y="1218.1267598927952" />
<node id="249783302" x="-556.1269737870898" y="1383.3065829640254" />
<node id="249783308" x="-532.8478706397582" y="1702.3750954116695" />
<node id="249783313" x="-356.9700327203609" y="1847.884187671356" />
<node id="249783316" x="-257.80209442821797" y="1864.471591363661" />
<node id="249786848" x="-326.1184208019404" y="167.54208639496937" />
<node id="249786894" x="452.76011774898507" y="104.27108852379024" />
<node id="249786895" x="459.4345188362058" y="86.27937076287344" />
<node id="249786899" x="896.6721569941146" y="791.6131659625098" />
<node id="249786900" x="910.7751665902324" y="811.6888728304766" />
<node id="249786902" x="958.5897737076739" y="821.1851519444026" />
<node id="249786916" x="1179.6829740804387" y="-882.5443770987913" />
<node id="249786918" x="920.0581688298844" y="-1016.5655043916777" />
<node id="249786921" x="603.2453759838827" y="-869.3508074996062" />
<node id="249791141" x="1774.9088726781774" y="-634.0368976755999" />
<node id="249791143" x="1769.5837013872806" y="-1023.523565386422" />
<node id="249791204" x="-970.5022043734789" y="-583.9674520883709" />
<node id="249791377" x="823.7260289738188" y="-1013.9055071519688" />
<node id="249791380" x="847.6440430425573" y="-1748.2235826672986" />
<node id="249791934" x="-1241.6419007173972" y="-5.515797154512256" />
<node id="249823920" x="1790.105028069578" y="-1250.4560900945216" />
<node id="267075193" x="945.2181531687966" y="-288.71451403200626" />
<node id="267075194" x="897.8031932744198" y="-224.98465951019898" />
<node id="267075196" x="550.0877382394392" y="-637.050179453101" />
<node id="267075198" x="287.1435015334282" y="-982.3243882600218" />
<node id="267075227" x="1232.3681300152093" y="-514.4704242632724" />
<node id="267075233" x="293.24982129153796" y="-239.9760548346676" />
<node id="267196276" x="-350.4769152648514" y="-605.9632804640569" />
<node id="267196295" x="-930.3571980868" y="-195.06441420968622" />
<node id="267196297" x="-921.5385729812551" y="-241.80952779576182" />
<node id="267196303" x="-992.334846365964" y="-244.6383487507701" />
<node id="267196304" x="-997.3467025037389" y="-218.5661994703114" />
<node id="267196309" x="-869.9100951253204" y="-178.04716352932155" />
<node id="267196314" x="-333.9583715510089" y="-67.87773820571601" />
<node id="267196319" x="63.419615590479225" y="-267.57767053041607" />
<node id="267196320" x="-31.92244322434999" y="269.1514387545176" />
<node id="267196323" x="246.39788256539032" y="-1017.7621415713802" />
<node id="267196328" x="276.1036892766133" y="-963.7153094043024" />
<node id="267196331" x="265.5275989745278" y="-1017.8941317200661" />
<node id="267196336" x="10.326250923913904" y="188.24850130453706" />
<node id="267196337" x="-62.50088185595814" y="333.78515411540866" />
<node id="267196340" x="167.15613779868" y="-55.92900088429451" />
<node id="267196343" x="-958.7982692955993" y="-147.37414867430925" />
<node id="267196344" x="-1299.5308725652285" y="-570.8805656447075" />
<node id="267196357" x="-1258.721357188886" y="-573.7188097983599" />
<node id="267197815" x="521.4436321257381" y="112.2470743576996" />
<node id="267197829" x="926.2073849695735" y="456.140715457499" />
<node id="267197830" x="445.1264371899888" y="193.2012599245645" />
<node id="267197831" x="761.55024901242" y="586.0116295046173" />
<node id="267197832" x="855.491290756152" y="416.1826988956891" />
<node id="267197833" x="740.5249170607422" y="-1829.6360697308555" />
<node id="267197834" x="797.5936650545336" y="-1860.3807229036465" />
<node id="267197844" x="308.5547946350416" y="-1586.3167996178381" />
<node id="267197856" x="857.8877190223429" y="-1741.3693268978968" />
<node id="267197860" x="199.24962052772753" y="-1738.643234428484" />
<node id="267197863" x="251.5125802977709" y="-1668.389575385023" />
<node id="267197867" x="173.60838542645797" y="-1725.1504474403337" />
<node id="267197868" x="172.0492254019482" y="-1717.5960094192997" />
<node id="267197869" x="174.78586196363904" y="-1689.5396945951506" />
<node id="267197870" x="192.57612003327813" y="-1660.1946164746769" />
<node id="267197874" x="245.8267230335623" y="-1646.753937494941" />
<node id="267197876" x="-367.3461721476633" y="-1409.1743412180804" />
<node id="267197883" x="-458.3864643148845" y="-1285.6809285562485" />
<node id="267197887" x="-394.0233077973826" y="-1242.6569397808053" />
<node id="267197888" x="-354.87623713328503" y="-1244.8578583737835" />
<node id="267197891" x="-307.76717969961464" y="-1266.4570507840253" />
<node id="267197893" x="-291.8540123103885" y="-1294.1228547035716" />
<node id="267197897" x="-322.892205611337" y="-1378.326689811889" />
<node id="267197917" x="-955.0512496788288" y="-968.6153819309548" />
<node id="267197918" x="-947.0053271647776" y="-927.5673411027528" />
<node id="267197925" x="-1018.5358228613622" y="-962.3392163328826" />
<node id="267197928" x="-977.8552566231228" y="-768.7652505706064" />
<node id="267197930" x="-1266.9722150282469" y="-1140.239243924152" />
<node id="267197931" x="-1291.2293034908362" y="-1152.2507507428527" />
<node id="267197934" x="-1324.4266336396104" y="-1143.1850409368053" />
<node id="267197936" x="-1340.4871972482651" y="-1108.4474066402763" />
<node id="267197937" x="-1338.0091140181758" y="-1095.3525254703127" />
<node id="267197938" x="-1324.4477116476046" y="-1076.3433024585247" />
<node id="267197939" x="-1313.37442478491" y="-1069.8858839333989" />
<node id="267197941" x="-1284.1298102980945" y="-1068.8912410517223" />
<node id="267197943" x="-1269.6599043854512" y="-1076.8281981330365" />
<node id="267197944" x="-1254.3302802591352" y="-1106.4128152313642" />
<node id="267197955" x="368.10347513097804" y="-1634.7895198417827" />
<node id="267197956" x="510.77319670747966" y="-1404.3647596784867" />
<node id="267197957" x="617.8378445651615" y="-1448.3259617541917" />
<node id="267197959" x="866.2670664837351" y="-1180.2365412083454" />
<node id="267197960" x="486.8636717875488" y="-1697.249100940302" />
<node id="267197961" x="568.4285461046966" y="-1562.8871013401076" />
<node id="267197963" x="713.4614258529618" y="-1610.187110374216" />
<node id="267197965" x="721.6363447903423" y="-1724.385215329472" />
<node id="267197967" x="1105.1528131477535" y="-1282.967045494821" />
<node id="267197973" x="981.3679177658632" y="-1308.8152522598393" />
<node id="267197974" x="1041.307919405168" y="-1312.1091619688086" />
<node id="267197975" x="1139.5312029088382" y="-1267.6237871018238" />
<node id="267197976" x="1222.3762925928459" y="-1428.6001259204932" />
<node id="267197980" x="856.5590751837008" y="-1492.780837867409" />
<node id="267197983" x="942.0573049980449" y="-1183.0578613728285" />
<node id="267197984" x="927.9202609905042" y="-1495.1417496670038" />
<node id="267197985" x="932.5369606313761" y="-1306.7883468824439" />
<node id="267197986" x="1072.5504733774578" y="-1146.0864669387229" />
<node id="267198388" x="-411.829107859754" y="1251.6442616516724" />
<node id="267198390" x="-63.14856762893032" y="1653.236069214996" />
<node id="267198392" x="-260.69742872787174" y="1774.436545882374" />
<node id="267198394" x="-265.2327908227453" y="1665.7894170274958" />
<node id="267247451" x="296.4755055558635" y="1560.9769592648372" />
<node id="267247452" x="287.2052648324752" y="1529.838518687524" />
<node id="267247454" x="221.85453189304098" y="1419.4709608703852" />
<node id="267247456" x="157.66316540329717" y="1397.0669245454483" />
<node id="267247460" x="38.451922826468945" y="1441.8354162601754" />
<node id="267247462" x="408.8882365003228" y="1460.0510226972401" />
<node id="267249900" x="-1562.527181335725" y="807.0730301686563" />
<node id="267249902" x="-1587.0660943799885" y="824.8578626844101" />
<node id="267249903" x="-1602.9277175822062" y="856.3952687908895" />
<node id="267249905" x="-1602.9955868835095" y="884.4546547266655" />
<node id="267249911" x="-1479.9011733818334" y="913.2023054417223" />
<node id="267249912" x="-1469.1415176927112" y="893.6332522113807" />
<node id="267249914" x="-1468.455703891581" y="849.6091887429357" />
<node id="267249915" x="-1491.2347888066433" y="816.5823173294775" />
<node id="267249920" x="-967.5403887033463" y="464.07940590707585" />
<node id="267249923" x="-956.3514489099616" y="525.5079169152305" />
<node id="267249926" x="-915.215326683945" y="530.7262471425347" />
<node id="267249927" x="-890.3647709280485" y="507.8263530144468" />
<node id="267249930" x="-889.9653681891505" y="471.45786603726447" />
<node id="267249940" x="970.0583892795257" y="815.7449642205611" />
<node id="267249941" x="979.7584399810294" y="807.5776223540306" />
<node id="267249943" x="991.7501656929962" y="769.9395554792136" />
<node id="267249944" x="986.3504861202091" y="750.0262837233022" />
<node id="267249954" x="-660.6175289378734" y="288.892826970201" />
<node id="267249955" x="-660.5963389864191" y="302.5300353500061" />
<node id="267249959" x="-633.4945776490495" y="328.17727690469474" />
<node id="267249960" x="-618.0358695052564" y="327.00034119188786" />
<node id="267249962" x="-598.8970452697249" y="310.9465746646747" />
<node id="267249964" x="-596.8540828623809" y="285.17426601145416" />
<node id="267249967" x="-626.8919933240395" y="262.76531518111005" />
<node id="267250972" x="401.68426825420465" y="1126.3551372257061" />
<node id="267250973" x="331.0856971319299" y="1025.0804411373101" />
<node id="267250978" x="102.72988559561782" y="848.5729641476646" />
<node id="267250981" x="-300.1376323669683" y="835.309930939693" />
<node id="267250993" x="-649.3502930506365" y="872.7465475052595" />
<node id="267250994" x="-675.104540695902" y="890.0524823721498" />
<node id="267250995" x="-711.7947990817484" y="909.9829463320784" />
<node id="267250999" x="-1063.3643803722225" y="741.9713444793597" />
<node id="267251003" x="-938.9828432069626" y="1017.7519679157995" />
<node id="267251006" x="-1132.260006432305" y="856.1993733318523" />
<node id="267251007" x="-1148.9100186986616" y="1068.8691616514698" />
<node id="267251008" x="-1134.0652850902406" y="790.3768277745694" />
<node id="267251009" x="-907.386207511765" y="825.3928012144752" />
<node id="267251016" x="-626.7992341294885" y="348.01378386607394" />
<node id="267251573" x="269.68083629827015" y="509.7035683100112" />
<node id="267251574" x="-109.54963279527146" y="599.8942569671199" />
<node id="267251575" x="-77.83979591552634" y="623.832496935036" />
<node id="267251576" x="-67.50207214802504" y="826.5932656507939" />
<node id="267251581" x="-9.533743751351722" y="543.5468814000487" />
<node id="267251584" x="98.35963440104388" y="601.2536440999247" />
<node id="267251585" x="170.2930490677245" y="460.6793024125509" />
<node id="267251586" x="-151.82427618210204" y="595.9490628377534" />
<node id="267251588" x="722.964273791993" y="662.2685731188394" />
<node id="267251591" x="581.009690576233" y="865.4729074239731" />
<node id="267251592" x="675.0727075069444" y="812.1246476075612" />
<node id="267251594" x="668.0550060956739" y="776.6596556864679" />
<node id="267251597" x="422.12767593737226" y="965.731481066905" />
<node id="267251598" x="297.3562542751897" y="845.9639703184366" />
<node id="267251601" x="486.68730739399325" y="926.4891866766848" />
<node id="267253204" x="-641.6877594199032" y="-60.058353235945106" />
<node id="267253206" x="-749.6430633801501" y="234.1817725035362" />
<node id="267253207" x="-751.644462349941" y="40.13621735107154" />
<node id="267253209" x="-836.9980695344275" y="293.14238007133827" />
<node id="267259245" x="-1378.3941660204437" y="1207.62456121156" />
<node id="267259246" x="-1231.0079263305524" y="1195.7584686004557" />
<node id="267259248" x="-1535.6362384617096" y="756.2043555495329" />
<node id="267259251" x="-1597.0354314210126" y="175.01109937019646" />
<node id="267259252" x="-1970.9959949590266" y="411.4046217906289" />
<node id="267259255" x="-1966.6030797713902" y="508.54999527707696" />
<node id="267259262" x="-1042.5558397970162" y="500.2423982946202" />
<node id="267259263" x="-1016.1918613649905" y="538.8133990149945" />
<node id="267259266" x="-1285.742445533513" y="325.8961144038476" />
<node id="267259267" x="-1277.5698154829443" y="381.78045859048143" />
<node id="267259269" x="-1238.8657152291853" y="449.8037240020931" />
<node id="267259270" x="-1529.0966547422577" y="128.97974377777427" />
<node id="267259274" x="-1525.0182702215388" y="173.02516123326495" />
<node id="267259278" x="-1598.1561449797591" y="135.54370016185567" />
<node id="267259280" x="-1302.0311260786839" y="291.5254181008786" />
<node id="267259282" x="-1153.7658836261835" y="136.97737846849486" />
<node id="267259283" x="-1679.423230361892" y="370.1150129842572" />
<node id="267259287" x="-1735.2595054381527" y="410.32798477401957" />
<node id="267259291" x="-1674.4299203793053" y="443.0693456195295" />
<node id="267259320" x="-1559.8828441256192" y="293.8483919217251" />
<node id="267259322" x="-1549.9346749542747" y="553.0634270468727" />
<node id="267259325" x="-1900.20575808594" y="367.60794118093327" />
<node id="267259328" x="-1613.2359723600093" y="-204.11145213386044" />
<node id="267259409" x="-1584.0691928463057" y="-165.61229857755825" />
<node id="267259412" x="-1560.102309601847" y="-168.1967790047638" />
<node id="267259426" x="-1988.9048871087143" y="-40.22204952733591" />
<node id="267259433" x="-1877.5865385252982" y="-196.8671151646413" />
<node id="267259435" x="-1902.0234800076578" y="-28.04496929515153" />
<node id="267259436" x="-1808.1251576608047" y="163.90072446595877" />
<node id="267259438" x="-1866.624957396998" y="129.3849235116504" />
<node id="267259442" x="-1861.9688116927864" y="188.3302716454491" />
<node id="267259450" x="-1986.3513998498674" y="19.793130179401487" />
<node id="267609602" x="-1303.4992056299234" y="-758.5864849514328" />
<node id="301037181" x="-1611.4584009775426" y="-2018.945828138385" />
<node id="301037183" x="-1658.137355674873" y="-2033.952907239087" />
<node id="301037185" x="-1603.0712971072644" y="-1985.6086208033375" />
<node id="301037187" x="-1569.8999809668167" y="-1268.9265835024416" />
<node id="308719791" x="1747.4259833398974" y="721.5131909917109" />
<node id="308719942" x="1686.4380090082996" y="740.5377000384033" />
<node id="308723214" x="1851.0671164512169" y="912.1463581197895" />
<node id="308883156" x="-386.2862681495026" y="-1994.488934491761" />
<node id="308883222" x="-412.50532620423473" y="-1992.036982464604" />
<node id="308883223" x="-446.0509315303061" y="-2025.0655536730774" />
<node id="308883229" x="-391.4663451956585" y="-2076.6052997852676" />
<node id="308883230" x="-374.7338110744022" y="-2067.680630002171" />
<node id="308883231" x="-360.54106577904895" y="-2025.2099386304617" />
<node id="308883582" x="-435.3216128407512" y="-2064.4244694835506" />
<node id="308884930" x="-1014.5505857595708" y="-1616.5191302071325" />
<node id="308884941" x="-967.3646655965131" y="-1663.441784920171" />
<node id="308884943" x="-994.2829224322923" y="-1696.1466370881535" />
<node id="308884948" x="-1021.5550973158097" y="-1696.4845533403568" />
<node id="308884952" x="-1049.469221391715" y="-1663.152633660473" />
<node id="308884954" x="-1039.7837513558334" y="-1630.289761044085" />
<node id="308885274" x="-983.2304898095317" y="-1624.5101171052083" />
<node id="308887717" x="-1783.6124813770875" y="-1360.5400571804494" />
<node id="308887829" x="-1722.9155641861726" y="-1209.6508863200434" />
<node id="308887830" x="-1807.8878762987442" y="-1321.6848412239924" />
<node id="308887832" x="-1615.3551352506038" y="-1407.9721727408469" />
<node id="308890952" x="230.8110354426317" y="-1976.3466438595206" />
<node id="308890954" x="442.96256704535335" y="-2182.585574368015" />
<node id="314506006" x="547.954448049888" y="-779.8783440133557" />
<node id="345234446" x="-1622.1133691647556" y="1618.1689021252096" />
<node id="345234450" x="-1671.5496186282253" y="1597.0230899755843" />
<node id="345234453" x="-1678.7281009046128" y="1629.2972918190062" />
<node id="345234455" x="-2032.125048599788" y="1861.5898785591125" />
<node id="345234460" x="-1672.5347970179282" y="1638.7466588420793" />
<node id="345234470" x="-1856.4684745094273" y="2154.558519379236" />
<node id="345234471" x="-2018.2370888823643" y="1854.229171065148" />
<node id="345234473" x="-2024.5887608216144" y="1843.812530768104" />
<node id="345265121" x="-524.248036120669" y="1716.504110164009" />
<node id="355435736" x="-1022.1343538365327" y="-952.9154659970663" />
<node id="370583668" x="-553.9798509042012" y="-1944.490834062919" />
<node id="370583672" x="-976.0404616338201" y="-1683.1703924401663" />
<node id="370584162" x="-825.0997999326792" y="-2039.0250646914355" />
<node id="370584167" x="-827.9138567843474" y="-2009.6195233622566" />
<node id="370584172" x="-800.1656333688879" y="-2023.8626273185946" />
<node id="370584207" x="-613.9543904240709" y="-2029.251705657225" />
<node id="370584246" x="-908.9194823189173" y="-1843.519014034886" />
<node id="395135071" x="-1368.4043594263494" y="1483.8040662370622" />
<node id="395135085" x="-942.0327510356437" y="1521.1376521224156" />
<node id="395135093" x="-894.9442470422946" y="1459.3357246830128" />
<node id="395135103" x="-616.1578004356707" y="1364.87558643613" />
<node id="432874005" x="-440.46181165170856" y="1809.8583151171915" />
<node id="433484629" x="-1626.3907619416714" y="-1234.4907453977503" />
<node id="433484632" x="-1622.5334215193288" y="-1956.3658249024302" />
<node id="433484645" x="-444.3577583830338" y="-2049.9019113113172" />
<node id="450631313" x="-1069.336170829949" y="2058.455024513416" />
<node id="450631428" x="-940.1507750417804" y="2259.312560892664" />
<node id="450639343" x="-931.9778016763739" y="2272.723816177342" />
<node id="458640628" x="1780.0846763254376" y="991.5846797921695" />
<node id="458640629" x="1792.7880129802506" y="1988.7482020906173" />
<node id="458640632" x="828.7743182650302" y="1977.9381303903647" />
<node id="458640633" x="615.702620864613" y="1991.3461952903308" />
<node id="458640636" x="578.689269705792" y="1972.5175779648125" />
<node id="458640638" x="572.7859083446674" y="2004.7925070128404" />
<node id="458640640" x="601.66295181436" y="2013.0365185993724" />
<node id="458640642" x="181.41848408058286" y="2251.2027370953" />
<node id="458640643" x="473.7504051865544" y="1810.1216689571738" />
<node id="458640644" x="715.9933309031185" y="2198.204443253111" />
<node id="562591515" x="-1661.8782575916266" y="1645.9169150921516" />
<node id="562591519" x="-1647.3184515503235" y="1647.7599575156346" />
<node id="562591570" x="-1355.906783551327" y="1601.4775906074792" />
<node id="562591572" x="-1590.4622078040848" y="1865.1350178299472" />
<node id="562591589" x="-1466.8938778715674" y="2236.6633038930595" />
<node id="562591601" x="-949.4763348440174" y="1579.2389987246133" />
<node id="562615475" x="-1679.045710822218" y="964.7719855173491" />
<node id="563662816" x="-1535.7088034593035" y="-1814.5953186317347" />
<node id="563662817" x="-1480.7381995851174" y="-1910.7345380499028" />
<node id="563662818" x="-1544.991302604787" y="-1238.111638624221" />
<node id="563662820" x="-1470.955731279566" y="-1713.8641201807186" />
<node id="563662821" x="-1327.9595131485257" y="-1641.2566156992689" />
<node id="563662823" x="-1459.835760115413" y="-1391.2008106419817" />
<node id="621248441" x="-1523.2766590684187" y="139.08743134792894" />
<node id="621248447" x="-940.8719906648621" y="444.9714789269492" />
<node id="621248448" x="237.2898765496211" y="-1013.0644046026282" />
<node id="621248449" x="225.75310940365307" y="-996.138646657113" />
<node id="621248450" x="227.16466340143234" y="-975.7679515704513" />
<node id="621248465" x="285.9230357812485" y="-301.00168645661324" />
<node id="621248467" x="251.3793805160094" y="-275.8008750989102" />
<node id="621248468" x="263.1072840333218" y="-245.1934581953101" />
<node id="621248504" x="-1640.0669606517768" y="-1241.472561614588" />
<node id="786590742" x="1183.8839752902277" y="999.205259159673" />
<node id="883993784" x="580.5672778910957" y="1430.6663410319015" />
<node id="883993786" x="947.386025804095" y="1195.3609826238826" />
<node id="883993801" x="955.1049245122122" y="1183.265113605652" />
<node id="883993802" x="902.2497502696933" y="-118.31169858854264" />
<node id="883993861" x="948.8503148090094" y="1199.712251511868" />
<node id="883993865" x="961.5454373693792" y="1183.0527901067398" />
<node id="883993866" x="969.3006975778844" y="1189.9606943894178" />
<node id="910347038" x="1043.8192069153301" y="-1751.748288217932" />
<node id="910451127" x="1602.854953812668" y="-1956.2337125889026" />
<node id="910451285" x="1623.1191907610046" y="-1958.8591315024532" />
<node id="910549492" x="1438.1821797190933" y="239.60143667226657" />
<node id="910549579" x="997.8691807399737" y="-1784.1370213064365" />
<node id="910549625" x="989.8969976273365" y="-1789.496631929651" />
<node id="910549683" x="1031.8017687175889" y="-1866.4562885276973" />
<node id="910549711" x="1011.995175520191" y="-1838.5209440840408" />
<node id="912971480" x="-427.78389645414427" y="1837.1899849176407" />
<node id="938409400" x="78.49115906341467" y="2308.5798532445915" />
<node id="938524677" x="1819.5663282425376" y="2293.4572508702986" />
<node id="938622286" x="1759.4375441386364" y="-633.8499787235633" />
<node id="938622292" x="1773.7849526870996" y="-1270.8181529184803" />
<node id="938622301" x="1789.993403138942" y="-1234.049412340857" />
<node id="938622410" x="1785.5453830971383" y="111.47628836054355" />
<node id="938622435" x="1825.5223930410575" y="-1428.5041156900115" />
<node id="938622518" x="1758.1825845675776" y="-1023.8923249691725" />
<node id="938622665" x="1768.5707338200882" y="-145.8611883437261" />
<node id="938641783" x="-2.9408438111422583" y="-2261.4426660104655" />
<node id="938641806" x="188.63542478415184" y="-1759.794752266258" />
<node id="938641807" x="535.4752724000718" y="-1941.7636532899924" />
<node id="939086453" x="1805.9888019588543" y="703.4967912994325" />
<node id="939086478" x="1774.8661510949023" y="731.4071040502749" />
<node id="939086513" x="1859.9372931499965" y="879.406333220657" />
<node id="939086567" x="1810.7477291107643" y="668.2848701360635" />
<node id="939086602" x="1716.3814787850715" y="735.3445781394839" />
<node id="939091050" x="1762.3541746502742" y="715.7616180139594" />
<node id="939091064" x="22.97766572458204" y="1360.2916313507594" />
<node id="939091095" x="-203.9134158368688" y="1646.3513108617626" />
<node id="939091096" x="1731.2404889578465" y="696.740793239791" />
<node id="939091123" x="12.865603884798475" y="1391.2023604805581" />
<node id="939091126" x="1102.3795808558352" y="-390.5296975634992" />
<node id="939091136" x="1451.6865253172582" y="230.49669173685834" />
<node id="939091150" x="1708.2219519335777" y="755.7581303375773" />
<node id="939091163" x="991.481174814282" y="785.3897773413919" />
<node id="939091176" x="396.4094564955449" y="1119.1279766554944" />
<node id="939091191" x="1757.6264720560284" y="739.9203586382791" />
<node id="939091207" x="1030.1427141963504" y="-347.7304185559042" />
<node id="943560066" x="-1707.6475966571597" y="1499.7245848709717" />
<node id="943560121" x="-1732.7474692129763" y="1116.911841664929" />
<node id="943560162" x="-1442.6150843896903" y="345.5156358862296" />
<node id="943560221" x="-1748.1512017711066" y="1009.1082081156783" />
<node id="943560313" x="-1878.4336043706862" y="1754.4419197333045" />
<node id="943560427" x="-1747.7508172562812" y="1675.7079951418564" />
<node id="943830439" x="-240.06890217703767" y="-1945.8222950617783" />
<node id="943830516" x="-856.7486673466628" y="-1582.3025410445407" />
<node id="943830590" x="234.2044621980749" y="-1491.0885174288414" />
<node id="943830669" x="-1552.0711417905986" y="-2186.923609392252" />
<node id="943830678" x="-1923.279554635752" y="-1808.41042463528" />
<node id="943830751" x="-185.91677612136118" y="-1699.8537054057233" />
<node id="943830775" x="-726.2743025819072" y="-2200.3495346154086" />
<node id="943830813" x="247.94450603157748" y="-1169.8233204889111" />
<node id="943830836" x="-1629.4172804297414" y="-1807.4537708498538" />
<node id="943830889" x="-385.9957537453156" y="-1518.8585472027771" />
<node id="943830930" x="49.01795031817164" y="-1791.6920065130107" />
<node id="943830970" x="-1886.8061227424769" y="-1264.212523327209" />
<node id="943831086" x="-1298.4996360051446" y="-2305.319418778643" />
<node id="943831168" x="-801.8979514441453" y="-1669.0506704780273" />
<node id="943831203" x="-1229.6869263440603" y="-1590.9595174840651" />
<node id="943831249" x="-397.7579434972722" y="-1853.3445720798336" />
<node id="943831293" x="-501.8203967107693" y="-1850.4173378464766" />
<node id="943831433" x="-287.493644870352" y="-1855.6569440495223" />
<node id="943831448" x="-1859.2979761504102" y="-2018.4232182335109" />
<node id="943831487" x="-147.96156627626624" y="-1204.5203876136802" />
<node id="943831779" x="-1381.4207722201245" y="-2111.47914773738" />
<node id="943831815" x="-318.4738424201496" y="-2185.2665123785846" />
<node id="943831837" x="-1115.871226418647" y="-1197.9812579038553" />
<node id="943831841" x="-1780.6134876187425" y="-1897.215352710802" />
<node id="943875567" x="-565.0869860392995" y="-2114.48002816597" />
<node id="943875795" x="-13.279784770216793" y="-1992.3904465809464" />
<node id="943875805" x="-881.1800799244083" y="-2281.033787331078" />
<node id="943875896" x="-102.04614305170253" y="-1873.2252234783955" />
<node id="971653360" x="395.3878412246704" y="286.34748591762036" />
<node id="1191294738" x="-484.3529110425152" y="1049.260261544492" />
<node id="1191294765" x="-278.9348181675887" y="1416.057676997967" />
<node id="1191294788" x="-925.2335227295989" y="1275.2654496794567" />
<node id="1191294802" x="-967.4400711711496" y="1403.5680541908368" />
<node id="1191294803" x="-338.9476879548747" y="1436.1968152690679" />
<node id="1191294813" x="-999.7885272242129" y="1465.9535296601243" />
<node id="1191294827" x="-446.09687906946056" y="1051.965692290105" />
<node id="1191294833" x="-500.0965121589834" y="1152.3199719712138" />
<node id="1271972179" x="-1572.5214025743771" y="928.7988089998253" />
<node id="1275190679" x="1549.02053797408" y="-1546.7232412355952" />
<node id="1275190681" x="584.5204085055739" y="-1529.0938474833965" />
<node id="1275190683" x="802.178105450701" y="-1558.8862018734217" />
<node id="1275190686" x="1799.1511800382286" y="-1811.3000259920955" />
<node id="1275190687" x="860.4142833510414" y="-1413.049345061183" />
<node id="1275190691" x="716.3807079102844" y="-1555.2524652187712" />
<node id="1275190693" x="718.9494351395406" y="-1506.7104113460518" />
<node id="1275190695" x="1591.4018096830696" y="-1830.4444643892348" />
<node id="1275190697" x="1773.816194948624" y="-2097.5195262711495" />
<node id="1275190699" x="1627.197617167607" y="-1510.669050225988" />
<node id="1275190705" x="1581.7334265029058" y="-1649.9518987755291" />
<node id="1275190711" x="1643.0983715173788" y="-1592.8143133958802" />
<node id="1275190712" x="1648.079424174386" y="-1365.4599484521896" />
<node id="1275190714" x="1460.8649822036969" y="-1542.5957957007922" />
<node id="1275190715" x="1489.4154470930807" y="-1658.730113227386" />
<node id="1275190716" x="801.2844926323742" y="-1610.667709897738" />
<node id="1275190727" x="804.7491801790893" y="-1410.7834599609487" />
<node id="1275190730" x="1567.1270359483315" y="-1844.0810256404802" />
<node id="1275190732" x="1674.1656440009829" y="-1793.6501689529978" />
<node id="1275190737" x="468.513859585044" y="-1472.5931746424176" />
<node id="1275190739" x="803.8316175848013" y="-1463.3747733626515" />
<node id="1275190749" x="800.5563126003835" y="-1652.955723337829" />
<node id="1275190773" x="721.4492320516147" y="-1459.7218052130193" />
<node id="1275190781" x="803.0254695256008" y="-1510.3983682990074" />
<node id="1275190804" x="1414.8927437776001" y="-1491.5351109057665" />
<node id="1275190808" x="801.0487022370799" y="-1674.6436511110514" />
<node id="1275190821" x="712.6644174618414" y="-1649.8487761644647" />
<node id="1275190824" x="1816.7000366915017" y="-2095.7963044624776" />
<node id="1275190826" x="555.1144042427186" y="-1332.3721707155928" />
<node id="1275190828" x="847.3096124522854" y="-1673.0937252999283" />
<node id="1275190830" x="534.3827702919953" y="-1616.1395618617535" />
<node id="1275190833" x="1485.5827400241978" y="-1705.9657838768326" />
<node id="1275190850" x="1425.9273621230386" y="-1505.0322930836119" />
<node id="1275190866" x="1347.0292571091559" y="-925.7383826910518" />
<node id="1275190868" x="724.2722044020193" y="-1406.4519730857573" />
<node id="1275190872" x="1804.0392122905469" y="-1874.8145875316113" />
<node id="1275190874" x="1512.5269082097802" y="-1689.1085703638382" />
<node id="1275190878" x="922.4492141309893" y="-1677.0584289939143" />
<node id="1275190881" x="1649.369768008124" y="-1548.8811561819166" />
<node id="1275190917" x="424.1451602996094" y="-1544.2199789946899" />
<node id="1275190921" x="1545.046014500549" y="-1806.5655318466015" />
<node id="1275190922" x="1640.993274904089" y="-1353.3081943825819" />
<node id="1275190943" x="1568.3443490783684" y="-1791.9937981087714" />