<connections>
<connection from="1869716862to249782331" to="249782331to1869716862" />
<connection from="1869716862to249782331" to="249782331to267198390" />
<connection from="1869716862to249782331" to="249782331to1869716889" />
<connection from="1869716862to249782331" to="249782331to10246421063" />
<connection from="267198390to249782331" to="249782331to1869716862" />
<connection from="267198390to249782331" to="249782331to267198390" />
<connection from="267198390to249782331" to="249782331to1869716889" />
<connection from="267198390to249782331" to="249782331to10246421063" />
<connection from="1869716889to249782331" to="249782331to1869716862" />
<connection from="1869716889to249782331" to="249782331to267198390" />
<connection from="1869716889to249782331" to="249782331to1869716889" />
<connection from="1869716889to249782331" to="249782331to10246421063" />
<connection from="10246421063to249782331" to="249782331to1869716862" />
<connection from="10246421063to249782331" to="249782331to267198390" />
<connection from="10246421063to249782331" to="249782331to1869716889" />
<connection from="10246421063to249782331" to="249782331to10246421063" />
<connection from="10246421063to249782337" to="249782337to10246421063" />
<connection from="10246421063to249782337" to="249782337to1191294765" />
<connection from="10246421063to249782337" to="249782337to249783293" />
<connection from="1191294765to249782337" to="249782337to10246421063" />
<connection from="1191294765to249782337" to="249782337to1191294765" />
<connection from="1191294765to249782337" to="249782337to249783293" />
<connection from="249783293to249782337" to="249782337to10246421063" />
<connection from="249783293to249782337" to="249782337to1191294765" />
<connection from="249783293to249782337" to="249782337to249783293" />
<connection from="6646336237to249782343" to="249782343to6646336237" />
<connection from="6646336237to249782343" to="249782343to249782349" />
<connection from="6646336237to249782343" to="249782343to1869716891" />
<connection from="249782349to249782343" to="249782343to6646336237" />
<connection from="249782349to249782343" to="249782343to249782349" />
<connection from="249782349to249782343" to="249782343to1869716891" />
<connection from="1869716891to249782343" to="249782343to6646336237" />
<connection from="1869716891to249782343" to="249782343to249782349" />
<connection from="1869716891to249782343" to="249782343to1869716891" />
<connection from="249782343to249782349" to="249782349to249782343" />
<connection from="249782343to249782349" to="249782349to249783308" />
<connection from="249782343to249782349" to="249782349to267198392" />
<connection from="249782343to249782349" to="249782349to1869716913" />
<connection from="249783308to249782349" to="249782349to249782343" />
<connection from="249783308to249782349" to="249782349to249783308" />
<connection from="249783308to249782349" to="249782349to267198392" />
<connection from="249783308to249782349" to="249782349to1869716913" />
<connection from="267198392to249782349" to="249782349to249782343" />
<connection from="267198392to249782349" to="249782349to249783308" />
<connection from="267198392to249782349" to="249782349to267198392" />
<connection from="267198392to249782349" to="249782349to1869716913" />
<connection from="1869716913to249782349" to="249782349to249782343" />
<connection from="1869716913to249782349" to="249782349to249783308" />
<connection from="1869716913to249782349" to="249782349to267198392" />
<connection from="1869716913to249782349" to="249782349to1869716913" />
<connection from="267198390to249783257" to="249783257to267198390" />
<connection from="267198390to249783257" to="249783257to1869716916" />
<connection from="267198390to249783257" to="249783257to5681296954" />
<connection from="1869716916to249783257" to="249783257to267198390" />
<connection from="1869716916to249783257" to="249783257to1869716916" />
<connection from="1869716916to249783257" to="249783257to5681296954" />
<connection from="5681296954to249783257" to="249783257to267198390" />
<connection from="5681296954to249783257" to="249783257to1869716916" />
<connection from="5681296954to249783257" to="249783257to5681296954" />
<connection from="5681450581to249783291" to="249783291to5681450581" />
<connection from="5681450581to249783291" to="249783291to1309626482" />
<connection from="5681450581to249783291" to="249783291to2592537501" />
<connection from="1309626482to249783291" to="249783291to5681450581" />
<connection from="1309626482to249783291" to="249783291to1309626482" />
<connection from="1309626482to249783291" to="249783291to2592537501" />
<connection from="2592537501to249783291" to="249783291to5681450581" />
<connection from="2592537501to249783291" to="249783291to1309626482" />
<connection from="2592537501to249783291" to="249783291to2592537501" />
<connection from="249782337to249783293" to="249783293to249782337" />
<connection from="249782337to249783293" to="249783293to267198388" />
<connection from="249782337to249783293" to="249783293to2431986256" />
<connection from="249782337to249783293" to="249783293to5681450581" />
<connection from="267198388to249783293" to="249783293to249782337" />
<connection from="267198388to249783293" to="249783293to267198388" />
<connection from="267198388to249783293" to="249783293to2431986256" />
<connection from="267198388to249783293" to="249783293to5681450581" />
<connection from="2431986256to249783293" to="249783293to249782337" />
<connection from="2431986256to249783293" to="249783293to267198388" />
<connection from="2431986256to249783293" to="249783293to2431986256" />
<connection from="2431986256to249783293" to="249783293to5681450581" />
<connection from="5681450581to249783293" to="249783293to249782337" />
<connection from="5681450581to249783293" to="249783293to267198388" />
<connection from="5681450581to249783293" to="249783293to2431986256" />
<connection from="5681450581to249783293" to="249783293to5681450581" />
<connection from="1762977534to249783302" to="249783302to1762977534" />
<connection from="1762977534to249783302" to="249783302to9857860395" />
<connection from="1762977534to249783302" to="249783302to4083436490" />
<connection from="1762977534to249783302" to="249783302to6646336237" />
<connection from="9857860395to249783302" to="249783302to1762977534" />
<connection from="9857860395to249783302" to="249783302to9857860395" />
<connection from="9857860395to249783302" to="249783302to4083436490" />
<connection from="9857860395to249783302" to="249783302to6646336237" />
<connection from="4083436490to249783302" to="249783302to1762977534" />
<connection from="4083436490to249783302" to="249783302to9857860395" />
<connection from="4083436490to249783302" to="249783302to4083436490" />
<connection from="4083436490to249783302" to="249783302to6646336237" />
<connection from="6646336237to249783302" to="249783302to1762977534" />
<connection from="6646336237to249783302" to="249783302to9857860395" />
<connection from="6646336237to249783302" to="249783302to4083436490" />
<connection from="6646336237to249783302" to="249783302to6646336237" />
<connection from="249782349to249783308" to="249783308to249782349" />
<connection from="249782349to249783308" to="249783308to345265121" />
<connection from="249782349to249783308" to="249783308to1869716959" />
<connection from="249782349to249783308" to="249783308to1869716895" />
<connection from="345265121to249783308" to="249783308to249782349" />
<connection from="345265121to249783308" to="249783308to345265121" />
<connection from="345265121to249783308" to="249783308to1869716959" />
<connection from="345265121to249783308" to="249783308to1869716895" />
<connection from="1869716959to249783308" to="249783308to249782349" />
<connection from="1869716959to249783308" to="249783308to345265121" />
<connection from="1869716959to249783308" to="249783308to1869716959" />
<connection from="1869716959to249783308" to="249783308to1869716895" />
<connection from="1869716895to249783308" to="249783308to249782349" />
<connection from="1869716895to249783308" to="249783308to345265121" />
<connection from="1869716895to249783308" to="249783308to1869716959" />
<connection from="1869716895to249783308" to="249783308to1869716895" />
<connection from="249783316to249783313" to="249783313to249783316" />
<connection from="249783316to249783313" to="249783313to432874005" />
<connection from="432874005to249783313" to="249783313to249783316" />
<connection from="432874005to249783313" to="249783313to432874005" />
<connection from="249783313to249783316" to="249783316to249783313" />
<connection from="249783313to249783316" to="249783316to267198392" />
<connection from="249783313to249783316" to="249783316to5681296953" />
<connection from="267198392to249783316" to="249783316to249783313" />
<connection from="267198392to249783316" to="249783316to267198392" />
<connection from="267198392to249783316" to="249783316to5681296953" />
<connection from="5681296953to249783316" to="249783316to249783313" />
<connection from="5681296953to249783316" to="249783316to267198392" />
<connection from="5681296953to249783316" to="249783316to5681296953" />
<connection from="5681450598to249786848" to="249786848to5681450598" />
<connection from="5681450598to249786848" to="249786848to5792664581" />
<connection from="5681450598to249786848" to="249786848to3742418043" />
<connection from="5792664581to249786848" to="249786848to5681450598" />
<connection from="5792664581to249786848" to="249786848to5792664581" />
<connection from="5792664581to249786848" to="249786848to3742418043" />
<connection from="3742418043to249786848" to="249786848to5681450598" />
<connection from="3742418043to249786848" to="249786848to5792664581" />
<connection from="3742418043to249786848" to="249786848to3742418043" />
<connection from="1309626396to249786894" to="249786894to1309626396" />
<connection from="1309626396to249786894" to="249786894to249786895" />
<connection from="1309626396to249786894" to="249786894to6702715212" />
<connection from="249786895to249786894" to="249786894to1309626396" />
<connection from="249786895to249786894" to="249786894to249786895" />
<connection from="249786895to249786894" to="249786894to6702715212" />
<connection from="6702715212to249786894" to="249786894to1309626396" />
<connection from="6702715212to249786894" to="249786894to249786895" />
<connection from="6702715212to249786894" to="249786894to6702715212" />
<connection from="6702715249to249786895" to="249786895to6702715249" />
<connection from="6702715249to249786895" to="249786895to249786894" />
<connection from="6702715249to249786895" to="249786895to1309626385" />
<connection from="249786894to249786895" to="249786895to6702715249" />
<connection from="249786894to249786895" to="249786895to249786894" />
<connection from="249786894to249786895" to="249786895to1309626385" />
<connection from="1309626385to249786895" to="249786895to6702715249" />
<connection from="1309626385to249786895" to="249786895to249786894" />
<connection from="1309626385to249786895" to="249786895to1309626385" />
<connection from="249786900to249786899" to="249786899to249786900" />
<connection from="249786900to249786899" to="249786899to5434484025" />
<connection from="249786900to249786899" to="249786899to5487856797" />
<connection from="5434484025to249786899" to="249786899to249786900" />
<connection from="5434484025to249786899" to="249786899to5434484025" />
<connection from="5434484025to249786899" to="249786899to5487856797" />
<connection from="5487856797to249786899" to="249786899to249786900" />
<connection from="5487856797to249786899" to="249786899to5434484025" />
<connection from="5487856797to249786899" to="249786899to5487856797" />
<connection from="249786899to249786900" to="249786900to249786899" />
<connection from="249786899to249786900" to="249786900to5487856796" />
<connection from="249786899to249786900" to="249786900to10273081181" />
<connection from="5487856796to249786900" to="249786900to249786899" />
<connection from="5487856796to249786900" to="249786900to5487856796" />
<connection from="5487856796to249786900" to="249786900to10273081181" />
<connection from="10273081181to249786900" to="249786900to249786899" />
<connection from="10273081181to249786900" to="249786900to5487856796" />
<connection from="10273081181to249786900" to="249786900to10273081181" />
<connection from="267249940to249786902" to="249786902to267249940" />
<connection from="267249940to249786902" to="249786902to5487856795" />
<connection from="267249940to249786902" to="249786902to6702715341" />
<connection from="5487856795to249786902" to="249786902to267249940" />
<connection from="5487856795to249786902" to="249786902to5487856795" />
<connection from="5487856795to249786902" to="249786902to6702715341" />
<connection from="6702715341to249786902" to="249786902to267249940" />
<connection from="6702715341to249786902" to="249786902to5487856795" />
<connection from="6702715341to249786902" to="249786902to6702715341" />
<connection from="1309626359to249786916" to="249786916to1309626359" />
<connection from="1309626359to249786916" to="249786916to1870091896" />
<connection from="1309626359to249786916" to="249786916to6345186416" />
<connection from="1870091896to249786916" to="249786916to1309626359" />
<connection from="1870091896to249786916" to="249786916to1870091896" />
<connection from="1870091896to249786916" to="249786916to6345186416" />
<connection from="6345186416to249786916" to="249786916to1309626359" />
<connection from="6345186416to249786916" to="249786916to1870091896" />
<connection from="6345186416to249786916" to="249786916to6345186416" />
<connection from="6717668047to249786918" to="249786918to6717668047" />
<connection from="6717668047to249786918" to="249786918to249791377" />
<connection from="6717668047to249786918" to="249786918to6436362272" />
<connection from="249791377to249786918" to="249786918to6717668047" />
<connection from="249791377to249786918" to="249786918to249791377" />
<connection from="249791377to249786918" to="249786918to6436362272" />
<connection from="6436362272to249786918" to="249786918to6717668047" />
<connection from="6436362272to249786918" to="249786918to249791377" />
<connection from="6436362272to249786918" to="249786918to6436362272" />
<connection from="6643020576to249786921" to="249786921to6643020576" />
<connection from="6643020576to249786921" to="249786921to314506006" />
<connection from="6643020576to249786921" to="249786921to3007872810" />
<connection from="314506006to249786921" to="249786921to6643020576" />
<connection from="314506006to249786921" to="249786921to314506006" />
<connection from="314506006to249786921" to="249786921to3007872810" />
<connection from="3007872810to249786921" to="249786921to6643020576" />
<connection from="3007872810to249786921" to="249786921to314506006" />
<connection from="3007872810to249786921" to="249786921to3007872810" />
<connection from="1524403130to249791141" to="249791141to1524403130" />
<connection from="1524403130to249791141" to="249791141to4333487282" />
<connection from="1524403130to249791141" to="249791141to938622286" />
<connection from="1524403130to249791141" to="249791141to4333487303" />
<connection from="4333487282to249791141" to="249791141to1524403130" />
<connection from="4333487282to249791141" to="249791141to4333487282" />
<connection from="4333487282to249791141" to="249791141to938622286" />
<connection from="4333487282to249791141" to="249791141to4333487303" />
<connection from="938622286to249791141" to="249791141to1524403130" />
<connection from="938622286to249791141" to="249791141to4333487282" />
<connection from="938622286to249791141" to="249791141to938622286" />
<connection from="938622286to249791141" to="249791141to4333487303" />
<connection from="4333487303to249791141" to="249791141to1524403130" />
<connection from="4333487303to249791141" to="249791141to4333487282" />
<connection from="4333487303to249791141" to="249791141to938622286" />
<connection from="4333487303to249791141" to="249791141to4333487303" />
<connection from="9857511324to249791143" to="249791143to9857511324" />
<connection from="9857511324to249791143" to="249791143to938622518" />
<connection from="9857511324to249791143" to="249791143to4333487272" />
<connection from="938622518to249791143" to="249791143to9857511324" />
<connection from="938622518to249791143" to="249791143to938622518" />
<connection from="938622518to249791143" to="249791143to4333487272" />
<connection from="4333487272to249791143" to="249791143to9857511324" />
<connection from="4333487272to249791143" to="249791143to938622518" />
<connection from="4333487272to249791143" to="249791143to4333487272" />
<connection from="267196276to249791204" to="249791204to267196276" />
<connection from="267196276to249791204" to="249791204to267196357" />
<connection from="267196276to249791204" to="249791204to6720409790" />
<connection from="267196276to249791204" to="249791204to6720409811" />
<connection from="267196357to249791204" to="249791204to267196276" />
<connection from="267196357to249791204" to="249791204to267196357" />
<connection from="267196357to249791204" to="249791204to6720409790" />
<connection from="267196357to249791204" to="249791204to6720409811" />
<connection from="6720409790to249791204" to="249791204to267196276" />
<connection from="6720409790to249791204" to="249791204to267196357" />
<connection from="6720409790to249791204" to="249791204to6720409790" />
<connection from="6720409790to249791204" to="249791204to6720409811" />
<connection from="6720409811to249791204" to="249791204to267196276" />
<connection from="6720409811to249791204" to="249791204to267196357" />
<connection from="6720409811to249791204" to="249791204to6720409790" />
<connection from="6720409811to249791204" to="249791204to6720409811" />
<connection from="249786918to249791377" to="249791377to249786918" />
<connection from="249786918to249791377" to="249791377to3007872805" />
<connection from="249786918to249791377" to="249791377to267197959" />
<connection from="3007872805to249791377" to="249791377to249786918" />
<connection from="3007872805to249791377" to="249791377to3007872805" />
<connection from="3007872805to249791377" to="249791377to267197959" />
<connection from="267197959to249791377" to="249791377to249786918" />
<connection from="267197959to249791377" to="249791377to3007872805" />
<connection from="267197959to249791377" to="249791377to267197959" />
<connection from="267197856to249791380" to="249791380to267197856" />
<connection from="267197856to249791380" to="249791380to6538753126" />
<connection from="267197856to249791380" to="249791380to1275190828" />
<connection from="267197856to249791380" to="249791380to6174545386" />
<connection from="6538753126to249791380" to="249791380to267197856" />
<connection from="6538753126to249791380" to="249791380to6538753126" />
<connection from="6538753126to249791380" to="249791380to1275190828" />
<connection from="6538753126to249791380" to="249791380to6174545386" />
<connection from="1275190828to249791380" to="249791380to267197856" />
<connection from="1275190828to249791380" to="249791380to6538753126" />
<connection from="1275190828to249791380" to="249791380to1275190828" />
<connection from="1275190828to249791380" to="249791380to6174545386" />
<connection from="6174545386to249791380" to="249791380to267197856" />
<connection from="6174545386to249791380" to="249791380to6538753126" />
<connection from="6174545386to249791380" to="249791380to1275190828" />
<connection from="6174545386to249791380" to="249791380to6174545386" />
<connection from="6742341898to249791934" to="249791934to6742341898" />
<connection from="6742341898to249791934" to="249791934to5792664486" />
<connection from="6742341898to249791934" to="249791934to9794237531" />
<connection from="5792664486to249791934" to="249791934to6742341898" />
<connection from="5792664486to249791934" to="249791934to5792664486" />
<connection from="5792664486to249791934" to="249791934to9794237531" />
<connection from="9794237531to249791934" to="249791934to6742341898" />
<connection from="9794237531to249791934" to="249791934to5792664486" />
<connection from="9794237531to249791934" to="249791934to9794237531" />
<connection from="9857832433to249823920" to="249823920to9857832433" />
<connection from="9857832433to249823920" to="249823920to938622301" />
<connection from="9857832433to249823920" to="249823920to3746076260" />
<connection from="938622301to249823920" to="249823920to9857832433" />
<connection from="938622301to249823920" to="249823920to938622301" />
<connection from="938622301to249823920" to="249823920to3746076260" />
<connection from="3746076260to249823920" to="249823920to9857832433" />
<connection from="3746076260to249823920" to="249823920to938622301" />
<connection from="3746076260to249823920" to="249823920to3746076260" />
<connection from="939091207to267075193" to="267075193to939091207" />
<connection from="939091207to267075193" to="267075193to3217361693" />
<connection from="939091207to267075193" to="267075193to6153253308" />
<connection from="3217361693to267075193" to="267075193to939091207" />
<connection from="3217361693to267075193" to="267075193to3217361693" />
<connection from="3217361693to267075193" to="267075193to6153253308" />
<connection from="6153253308to267075193" to="267075193to939091207" />
<connection from="6153253308to267075193" to="267075193to3217361693" />
<connection from="6153253308to267075193" to="267075193to6153253308" />
<connection from="6153253308to267075194" to="267075194to6153253308" />
<connection from="6153253308to267075194" to="267075194to883993802" />
<connection from="6153253308to267075194" to="267075194to3217361693" />
<connection from="883993802to267075194" to="267075194to6153253308" />
<connection from="883993802to267075194" to="267075194to883993802" />
<connection from="883993802to267075194" to="267075194to3217361693" />
<connection from="3217361693to267075194" to="267075194to6153253308" />
<connection from="3217361693to267075194" to="267075194to883993802" />
<connection from="3217361693to267075194" to="267075194to3217361693" />
<connection from="6689054519to267075196" to="267075196to6689054519" />
<connection from="6689054519to267075196" to="267075196to1873490489" />
<connection from="6689054519to267075196" to="267075196to314506006" />
<connection from="1873490489to267075196" to="267075196to6689054519" />
<connection from="1873490489to267075196" to="267075196to1873490489" />
<connection from="1873490489to267075196" to="267075196to314506006" />
<connection from="314506006to267075196" to="267075196to6689054519" />
<connection from="314506006to267075196" to="267075196to1873490489" />
<connection from="314506006to267075196" to="267075196to314506006" />
<connection from="267196331to267075198" to="267075198to267196331" />
<connection from="267196331to267075198" to="267075198to267196328" />
<connection from="267196331to267075198" to="267075198to6643020576" />
<connection from="267196328to267075198" to="267075198to267196331" />
<connection from="267196328to267075198" to="267075198to267196328" />
<connection from="267196328to267075198" to="267075198to6643020576" />
<connection from="6643020576to267075198" to="267075198to267196331" />
<connection from="6643020576to267075198" to="267075198to267196328" />
<connection from="6643020576to267075198" to="267075198to6643020576" />
<connection from="1870091896to267075227" to="267075227to1870091896" />
<connection from="1870091896to267075227" to="267075227to3742396957" />
<connection from="1870091896to267075227" to="267075227to6717668070" />
<connection from="3742396957to267075227" to="267075227to1870091896" />
<connection from="3742396957to267075227" to="267075227to3742396957" />
<connection from="3742396957to267075227" to="267075227to6717668070" />
<connection from="6717668070to267075227" to="267075227to1870091896" />
<connection from="6717668070to267075227" to="267075227to3742396957" />
<connection from="6717668070to267075227" to="267075227to6717668070" />
<connection from="6643524960to267075233" to="267075233to6643524960" />
<connection from="6643524960to267075233" to="267075233to6702715200" />
<connection from="6643524960to267075233" to="267075233to6702715208" />
<connection from="6702715200to267075233" to="267075233to6643524960" />
<connection from="6702715200to267075233" to="267075233to6702715200" />
<connection from="6702715200to267075233" to="267075233to6702715208" />
<connection from="6702715208to267075233" to="267075233to6643524960" />
<connection from="6702715208to267075233" to="267075233to6702715200" />
<connection from="6702715208to267075233" to="267075233to6702715208" />
<connection from="249791204to267196276" to="267196276to249791204" />
<connection from="249791204to267196276" to="267196276to6666318646" />
<connection from="249791204to267196276" to="267196276to6666328396" />
<connection from="249791204to267196276" to="267196276to9859979938" />
<connection from="6666318646to267196276" to="267196276to249791204" />
<connection from="6666318646to267196276" to="267196276to6666318646" />
<connection from="6666318646to267196276" to="267196276to6666328396" />
<connection from="6666318646to267196276" to="267196276to9859979938" />
<connection from="6666328396to267196276" to="267196276to249791204" />
<connection from="6666328396to267196276" to="267196276to6666318646" />
<connection from="6666328396to267196276" to="267196276to6666328396" />
<connection from="6666328396to267196276" to="267196276to9859979938" />
<connection from="9859979938to267196276" to="267196276to249791204" />
<connection from="9859979938to267196276" to="267196276to6666318646" />
<connection from="9859979938to267196276" to="267196276to6666328396" />
<connection from="9859979938to267196276" to="267196276to9859979938" />
<connection from="6742341860to267196295" to="267196295to6742341860" />
<connection from="6742341860to267196295" to="267196295to267196309" />
<connection from="6742341860to267196295" to="267196295to6742341851" />
<connection from="267196309to267196295" to="267196295to6742341860" />
<connection from="267196309to267196295" to="267196295to267196309" />
<connection from="267196309to267196295" to="267196295to6742341851" />
<connection from="6742341851to267196295" to="267196295to6742341860" />
<connection from="6742341851to267196295" to="267196295to267196309" />
<connection from="6742341851to267196295" to="267196295to6742341851" />
<connection from="5483954472to267196297" to="267196297to5483954472" />
<connection from="5483954472to267196297" to="267196297to1763887407" />
<connection from="5483954472to267196297" to="267196297to6702699429" />
<connection from="1763887407to267196297" to="267196297to5483954472" />
<connection from="1763887407to267196297" to="267196297to1763887407" />
<connection from="1763887407to267196297" to="267196297to6702699429" />
<connection from="6702699429to267196297" to="267196297to5483954472" />
<connection from="6702699429to267196297" to="267196297to1763887407" />
<connection from="6702699429to267196297" to="267196297to6702699429" />
<connection from="2729066812to267196303" to="267196303to2729066812" />
<connection from="2729066812to267196303" to="267196303to267196304" />
<connection from="2729066812to267196303" to="267196303to6720409826" />
<connection from="267196304to267196303" to="267196303to2729066812" />
<connection from="267196304to267196303" to="267196303to267196304" />
<connection from="267196304to267196303" to="267196303to6720409826" />
<connection from="6720409826to267196303" to="267196303to2729066812" />
<connection from="6720409826to267196303" to="267196303to267196304" />
<connection from="6720409826to267196303" to="267196303to6720409826" />
<connection from="267196303to267196304" to="267196304to267196303" />
<connection from="267196303to267196304" to="267196304to5483954464" />
<connection from="267196303to267196304" to="267196304to6742341897" />
<connection from="5483954464to267196304" to="267196304to267196303" />
<connection from="5483954464to267196304" to="267196304to5483954464" />
<connection from="5483954464to267196304" to="267196304to6742341897" />
<connection from="6742341897to267196304" to="267196304to267196303" />
<connection from="6742341897to267196304" to="267196304to5483954464" />
<connection from="6742341897to267196304" to="267196304to6742341897" />
<connection from="267196295to267196309" to="267196309to267196295" />
<connection from="267196295to267196309" to="267196309to267253204" />
<connection from="267196295to267196309" to="267196309to6742341860" />
<connection from="267253204to267196309" to="267196309to267196295" />
<connection from="267253204to267196309" to="267196309to267253204" />
<connection from="267253204to267196309" to="267196309to6742341860" />
<connection from="6742341860to267196309" to="267196309to267196295" />
<connection from="6742341860to267196309" to="267196309to267253204" />
<connection from="6742341860to267196309" to="267196309to6742341860" />
<connection from="6666317460to267196314" to="267196314to6666317460" />
<connection from="6666317460to267196314" to="267196314to6666317458" />
<connection from="6666317460to267196314" to="267196314to6666328386" />
<connection from="6666317458to267196314" to="267196314to6666317460" />
<connection from="6666317458to267196314" to="267196314to6666317458" />
<connection from="6666317458to267196314" to="267196314to6666328386" />
<connection from="6666328386to267196314" to="267196314to6666317460" />
<connection from="6666328386to267196314" to="267196314to6666317458" />
<connection from="6666328386to267196314" to="267196314to6666328386" />
<connection from="6702699473to267196319" to="267196319to6702699473" />
<connection from="6702699473to267196319" to="267196319to6666328389" />
<connection from="6702699473to267196319" to="267196319to621248467" />
<connection from="6666328389to267196319" to="267196319to6702699473" />
<connection from="6666328389to267196319" to="267196319to6666328389" />
<connection from="6666328389to267196319" to="267196319to621248467" />
<connection from="621248467to267196319" to="267196319to6702699473" />