<?xml version="1.0" encoding="UTF-8"?>

<!-- generated on 2023-06-07 18:21:25 by Eclipse SUMO netedit Version 1.16.0
<configuration xmlns:xsi="http://www.w3.org/2001/XMLSchema-instance" xsi:noNamespaceSchemaLocation="http://sumo.dlr.de/xsd/netconvertConfiguration.xsd">

    <input>
        <sumocfg-file value="/home/agrojas/Documents/vishwajeet/ddp_workspace/src/mrpp_iot/graph_sumo/pipeline1.sumocfg"/>
        <sumo-net-file value="/home/agrojas/Documents/vishwajeet/ddp_workspace/src/mrpp_iot/graph_sumo/pipeline1.net.xml"/>
    </input>

    <output>
        <output-file value="/home/agrojas/Documents/vishwajeet/ddp_workspace/src/mrpp_iot/graph_sumo/pipeline1.net.xml"/>
    </output>

    <processing>
        <geometry.min-radius.fix.railways value="false"/>
        <geometry.max-grade.fix value="false"/>
        <offset.disable-normalization value="true"/>
        <lefthand value="0"/>
    </processing>

    <junctions>
        <no-turnarounds value="true"/>
        <junctions.corner-detail value="5"/>
        <junctions.limit-turn-speed value="5.50"/>
        <rectangular-lane-cut value="0"/>
    </junctions>

    <pedestrian>
        <walkingareas value="0"/>
    </pedestrian>

</configuration>
-->

<net version="1.16" junctionCornerDetail="5" limitTurnSpeed="5.50" xmlns:xsi="http://www.w3.org/2001/XMLSchema-instance" xsi:noNamespaceSchemaLocation="http://sumo.dlr.de/xsd/net_file.xsd">

    <location netOffset="0.00,0.00" convBoundary="-1653.12,-1328.12,0.00,-665.62" origBoundary="-10000000000.00,-10000000000.00,10000000000.00,10000000000.00" projParameter="!"/>

    <edge id=":J152_0" function="internal">
        <lane id=":J152_0_0" index="0" speed="6.08" length="7.74" shape="-1592.15,-803.20 -1592.45,-801.10 -1593.35,-799.60 -1594.85,-798.70 -1596.95,-798.40"/>
    </edge>
    <edge id=":J152_1" function="internal">
        <lane id=":J152_1_0" index="0" speed="3.90" length="2.58" shape="-1596.95,-801.60 -1596.25,-801.70 -1595.75,-802.00 -1595.45,-802.50 -1595.35,-803.20"/>
    </edge>
    <edge id=":J153_0" function="internal">
        <lane id=":J153_0_0" index="0" speed="6.08" length="7.74" shape="-1595.35,-974.92 -1595.05,-977.02 -1594.15,-978.52 -1592.65,-979.42 -1590.55,-979.72"/>
    </edge>
    <edge id=":J153_1" function="internal">
        <lane id=":J153_1_0" index="0" speed="3.90" length="2.58" shape="-1590.55,-976.52 -1591.25,-976.42 -1591.75,-976.12 -1592.05,-975.62 -1592.15,-974.92"/>
    </edge>
    <edge id=":J154_0" function="internal">
        <lane id=":J154_0_0" index="0" speed="4.10" length="1.45" shape="-1400.30,-975.91 -1400.56,-976.17 -1400.85,-976.37 -1401.19,-976.48 -1401.56,-976.52"/>
    </edge>
    <edge id=":J154_1" function="internal">
        <lane id=":J154_1_0" index="0" speed="6.45" length="4.36" shape="-1401.56,-979.72 -1400.45,-979.60 -1399.44,-979.26 -1398.56,-978.68 -1397.78,-977.88"/>
    </edge>
    <edge id=":J155_0" function="internal">
        <lane id=":J155_0_0" index="0" speed="6.45" length="4.36" shape="-1342.19,-904.65 -1343.30,-904.77 -1344.31,-905.11 -1345.19,-905.69 -1345.97,-906.49"/>
    </edge>
    <edge id=":J155_1" function="internal">
        <lane id=":J155_1_0" index="0" speed="4.10" length="1.45" shape="-1343.45,-908.46 -1343.19,-908.20 -1342.90,-908.00 -1342.56,-907.89 -1342.19,-907.85"/>
    </edge>
    <edge id=":J156_0" function="internal">
        <lane id=":J156_0_0" index="0" speed="6.51" length="9.03" shape="-1226.60,-899.05 -1226.95,-901.50 -1228.00,-903.25 -1229.75,-904.30 -1232.20,-904.65"/>
    </edge>
    <edge id=":J156_1" function="internal">
        <lane id=":J156_1_0" index="0" speed="8.00" length="14.19" shape="-1226.60,-899.05 -1226.05,-902.90 -1224.40,-905.65 -1221.65,-907.30 -1217.80,-907.85"/>
    </edge>
    <edge id=":J156_2" function="internal">
        <lane id=":J156_2_0" index="0" speed="6.51" length="9.03" shape="-1217.80,-904.65 -1220.25,-904.30 -1222.00,-903.25 -1223.05,-901.50 -1223.40,-899.05"/>
    </edge>
    <edge id=":J156_3" function="internal">
        <lane id=":J156_3_0" index="0" speed="13.89" length="14.40" shape="-1217.80,-904.65 -1232.20,-904.65"/>
    </edge>
    <edge id=":J156_4" function="internal">
        <lane id=":J156_4_0" index="0" speed="13.89" length="14.40" shape="-1232.20,-907.85 -1217.80,-907.85"/>
    </edge>
    <edge id=":J156_5" function="internal">
        <lane id=":J156_5_0" index="0" speed="8.00" length="4.07" shape="-1232.20,-907.85 -1228.35,-907.30 -1228.20,-907.21"/>
    </edge>
    <edge id=":J156_6" function="internal">
        <lane id=":J156_6_0" index="0" speed="8.00" length="10.13" shape="-1228.20,-907.21 -1225.60,-905.65 -1223.95,-902.90 -1223.40,-899.05"/>
    </edge>
    <edge id=":J157_0" function="internal">
        <lane id=":J157_0_0" index="0" speed="13.89" length="14.40" shape="-1083.42,-904.65 -1097.82,-904.65"/>
    </edge>
    <edge id=":J157_1" function="internal">
        <lane id=":J157_1_0" index="0" speed="8.00" length="4.07" shape="-1083.42,-904.65 -1087.27,-905.20 -1087.42,-905.29"/>
    </edge>
    <edge id=":J157_6" function="internal">
        <lane id=":J157_6_0" index="0" speed="8.00" length="10.13" shape="-1087.42,-905.29 -1090.02,-906.85 -1091.67,-909.60 -1092.22,-913.45"/>
    </edge>
    <edge id=":J157_2" function="internal">
        <lane id=":J157_2_0" index="0" speed="6.51" length="9.03" shape="-1089.02,-913.45 -1088.67,-911.00 -1087.62,-909.25 -1085.87,-908.20 -1083.42,-907.85"/>
    </edge>
    <edge id=":J157_3" function="internal">
        <lane id=":J157_3_0" index="0" speed="8.00" length="14.19" shape="-1089.02,-913.45 -1089.57,-909.60 -1091.22,-906.85 -1093.97,-905.20 -1097.82,-904.65"/>
    </edge>
    <edge id=":J157_4" function="internal">
        <lane id=":J157_4_0" index="0" speed="6.51" length="9.03" shape="-1097.82,-907.85 -1095.37,-908.20 -1093.62,-909.25 -1092.57,-911.00 -1092.22,-913.45"/>
    </edge>
    <edge id=":J157_5" function="internal">
        <lane id=":J157_5_0" index="0" speed="13.89" length="14.40" shape="-1097.82,-907.85 -1083.42,-907.85"/>
    </edge>
    <edge id=":J158_0" function="internal">
        <lane id=":J158_0_0" index="0" speed="6.51" length="9.03" shape="-1092.22,-961.55 -1092.57,-964.00 -1093.62,-965.75 -1095.37,-966.80 -1097.82,-967.15"/>
    </edge>
    <edge id=":J158_1" function="internal">
        <lane id=":J158_1_0" index="0" speed="13.89" length="14.40" shape="-1092.22,-961.55 -1092.22,-975.95"/>
    </edge>
    <edge id=":J158_2" function="internal">
        <lane id=":J158_2_0" index="0" speed="13.89" length="14.40" shape="-1089.02,-975.95 -1089.02,-961.55"/>
    </edge>
    <edge id=":J158_3" function="internal">
        <lane id=":J158_3_0" index="0" speed="8.00" length="4.07" shape="-1089.02,-975.95 -1089.57,-972.10 -1089.66,-971.95"/>
    </edge>
    <edge id=":J158_6" function="internal">
        <lane id=":J158_6_0" index="0" speed="8.00" length="10.13" shape="-1089.66,-971.95 -1091.22,-969.35 -1093.97,-967.70 -1097.82,-967.15"/>
    </edge>
    <edge id=":J158_4" function="internal">
        <lane id=":J158_4_0" index="0" speed="6.51" length="9.03" shape="-1097.82,-970.35 -1095.37,-970.70 -1093.62,-971.75 -1092.57,-973.50 -1092.22,-975.95"/>
    </edge>
    <edge id=":J158_5" function="internal">
        <lane id=":J158_5_0" index="0" speed="8.00" length="14.19" shape="-1097.82,-970.35 -1093.97,-969.80 -1091.22,-968.15 -1089.57,-965.40 -1089.02,-961.55"/>
    </edge>
    <edge id=":J160_0" function="internal">
        <lane id=":J160_0_0" index="0" speed="6.51" length="9.03" shape="-910.98,-899.05 -911.33,-901.50 -912.38,-903.25 -914.13,-904.30 -916.58,-904.65"/>
    </edge>
    <edge id=":J160_1" function="internal">
        <lane id=":J160_1_0" index="0" speed="8.00" length="14.19" shape="-910.98,-899.05 -910.43,-902.90 -908.78,-905.65 -906.03,-907.30 -902.18,-907.85"/>
    </edge>
    <edge id=":J160_2" function="internal">
        <lane id=":J160_2_0" index="0" speed="6.51" length="9.03" shape="-902.18,-904.65 -904.63,-904.30 -906.38,-903.25 -907.43,-901.50 -907.78,-899.05"/>
    </edge>
    <edge id=":J160_3" function="internal">
        <lane id=":J160_3_0" index="0" speed="13.89" length="14.40" shape="-902.18,-904.65 -916.58,-904.65"/>
    </edge>
    <edge id=":J160_4" function="internal">
        <lane id=":J160_4_0" index="0" speed="13.89" length="14.40" shape="-916.58,-907.85 -902.18,-907.85"/>
    </edge>
    <edge id=":J160_5" function="internal">
        <lane id=":J160_5_0" index="0" speed="8.00" length="4.07" shape="-916.58,-907.85 -912.73,-907.30 -912.58,-907.21"/>
    </edge>
    <edge id=":J160_6" function="internal">
        <lane id=":J160_6_0" index="0" speed="8.00" length="10.13" shape="-912.58,-907.21 -909.98,-905.65 -908.33,-902.90 -907.78,-899.05"/>
    </edge>
    <edge id=":J161_0" function="internal">
        <lane id=":J161_0_0" index="0" speed="6.51" length="9.03" shape="-910.98,-786.55 -911.33,-789.00 -912.38,-790.75 -914.13,-791.80 -916.58,-792.15"/>
    </edge>
    <edge id=":J161_1" function="internal">
        <lane id=":J161_1_0" index="0" speed="13.89" length="14.40" shape="-910.98,-786.55 -910.98,-800.95"/>
    </edge>
    <edge id=":J161_2" function="internal">
        <lane id=":J161_2_0" index="0" speed="8.00" length="4.07" shape="-910.98,-786.55 -910.43,-790.40 -910.34,-790.55"/>
    </edge>
    <edge id=":J161_12" function="internal">
        <lane id=":J161_12_0" index="0" speed="8.00" length="10.13" shape="-910.34,-790.55 -908.78,-793.15 -906.03,-794.80 -902.18,-795.35"/>
    </edge>
    <edge id=":J161_3" function="internal">
        <lane id=":J161_3_0" index="0" speed="6.51" length="9.03" shape="-902.18,-792.15 -904.63,-791.80 -906.38,-790.75 -907.43,-789.00 -907.78,-786.55"/>
    </edge>
    <edge id=":J161_4" function="internal">
        <lane id=":J161_4_0" index="0" speed="13.89" length="14.40" shape="-902.18,-792.15 -916.58,-792.15"/>
    </edge>
    <edge id=":J161_5" function="internal">
        <lane id=":J161_5_0" index="0" speed="8.00" length="14.19" shape="-902.18,-792.15 -906.03,-792.70 -908.78,-794.35 -910.43,-797.10 -910.98,-800.95"/>
    </edge>
    <edge id=":J161_6" function="internal">
        <lane id=":J161_6_0" index="0" speed="6.51" length="9.03" shape="-907.78,-800.95 -907.43,-798.50 -906.38,-796.75 -904.63,-795.70 -902.18,-795.35"/>
    </edge>
    <edge id=":J161_7" function="internal">
        <lane id=":J161_7_0" index="0" speed="13.89" length="14.40" shape="-907.78,-800.95 -907.78,-786.55"/>
    </edge>
    <edge id=":J161_8" function="internal">
        <lane id=":J161_8_0" index="0" speed="8.00" length="4.07" shape="-907.78,-800.95 -908.33,-797.10 -908.42,-796.95"/>
    </edge>
    <edge id=":J161_13" function="internal">
        <lane id=":J161_13_0" index="0" speed="8.00" length="10.13" shape="-908.42,-796.95 -909.98,-794.35 -912.73,-792.70 -916.58,-792.15"/>
    </edge>
    <edge id=":J161_9" function="internal">
        <lane id=":J161_9_0" index="0" speed="6.51" length="9.03" shape="-916.58,-795.35 -914.13,-795.70 -912.38,-796.75 -911.33,-798.50 -910.98,-800.95"/>
    </edge>
    <edge id=":J161_10" function="internal">
        <lane id=":J161_10_0" index="0" speed="13.89" length="14.40" shape="-916.58,-795.35 -902.18,-795.35"/>
    </edge>
    <edge id=":J161_11" function="internal">
        <lane id=":J161_11_0" index="0" speed="8.00" length="14.19" shape="-916.58,-795.35 -912.73,-794.80 -909.98,-793.15 -908.33,-790.40 -907.78,-786.55"/>
    </edge>
    <edge id=":J164_0" function="internal">
        <lane id=":J164_0_0" index="0" speed="13.89" length="14.40" shape="-902.18,-692.15 -916.58,-692.15"/>
    </edge>
    <edge id=":J164_1" function="internal">
        <lane id=":J164_1_0" index="0" speed="8.00" length="4.07" shape="-902.18,-692.15 -906.03,-692.70 -906.18,-692.79"/>
    </edge>
    <edge id=":J164_6" function="internal">
        <lane id=":J164_6_0" index="0" speed="8.00" length="10.13" shape="-906.18,-692.79 -908.78,-694.35 -910.43,-697.10 -910.98,-700.95"/>
    </edge>
    <edge id=":J164_2" function="internal">
        <lane id=":J164_2_0" index="0" speed="6.51" length="9.03" shape="-907.78,-700.95 -907.43,-698.50 -906.38,-696.75 -904.63,-695.70 -902.18,-695.35"/>
    </edge>
    <edge id=":J164_3" function="internal">
        <lane id=":J164_3_0" index="0" speed="8.00" length="14.19" shape="-907.78,-700.95 -908.33,-697.10 -909.98,-694.35 -912.73,-692.70 -916.58,-692.15"/>
    </edge>
    <edge id=":J164_4" function="internal">
        <lane id=":J164_4_0" index="0" speed="6.51" length="9.03" shape="-916.58,-695.35 -914.13,-695.70 -912.38,-696.75 -911.33,-698.50 -910.98,-700.95"/>
    </edge>
    <edge id=":J164_5" function="internal">
        <lane id=":J164_5_0" index="0" speed="13.89" length="14.40" shape="-916.58,-695.35 -902.18,-695.35"/>
    </edge>
    <edge id=":J167_0" function="internal">
        <lane id=":J167_0_0" index="0" speed="6.51" length="9.03" shape="-760.98,-899.05 -761.33,-901.50 -762.38,-903.25 -764.13,-904.30 -766.58,-904.65"/>
    </edge>
    <edge id=":J167_1" function="internal">
        <lane id=":J167_1_0" index="0" speed="8.00" length="14.19" shape="-760.98,-899.05 -760.43,-902.90 -758.78,-905.65 -756.03,-907.30 -752.18,-907.85"/>
    </edge>
    <edge id=":J167_2" function="internal">
        <lane id=":J167_2_0" index="0" speed="6.51" length="9.03" shape="-752.18,-904.65 -754.63,-904.30 -756.38,-903.25 -757.43,-901.50 -757.78,-899.05"/>
    </edge>
    <edge id=":J167_3" function="internal">
        <lane id=":J167_3_0" index="0" speed="13.89" length="14.40" shape="-752.18,-904.65 -766.58,-904.65"/>
    </edge>
    <edge id=":J167_4" function="internal">
        <lane id=":J167_4_0" index="0" speed="13.89" length="14.40" shape="-766.58,-907.85 -752.18,-907.85"/>
    </edge>
    <edge id=":J167_5" function="internal">
        <lane id=":J167_5_0" index="0" speed="8.00" length="4.07" shape="-766.58,-907.85 -762.73,-907.30 -762.58,-907.21"/>
    </edge>
    <edge id=":J167_6" function="internal">
        <lane id=":J167_6_0" index="0" speed="8.00" length="10.13" shape="-762.58,-907.21 -759.98,-905.65 -758.33,-902.90 -757.78,-899.05"/>
    </edge>
    <edge id=":J168_0" function="internal">
        <lane id=":J168_0_0" index="0" speed="6.08" length="7.74" shape="-757.78,-853.20 -758.08,-851.10 -758.98,-849.60 -760.48,-848.70 -762.58,-848.40"/>
    </edge>
    <edge id=":J168_1" function="internal">
        <lane id=":J168_1_0" index="0" speed="3.90" length="2.58" shape="-762.58,-851.60 -761.88,-851.70 -761.38,-852.00 -761.08,-852.50 -760.98,-853.20"/>
    </edge>
    <edge id=":J169_0" function="internal">
        <lane id=":J169_0_0" index="0" speed="13.89" length="14.40" shape="-633.42,-904.65 -647.82,-904.65"/>
    </edge>
    <edge id=":J169_1" function="internal">
        <lane id=":J169_1_0" index="0" speed="8.00" length="4.07" shape="-633.42,-904.65 -637.27,-905.20 -637.42,-905.29"/>
    </edge>
    <edge id=":J169_6" function="internal">
        <lane id=":J169_6_0" index="0" speed="8.00" length="10.13" shape="-637.42,-905.29 -640.02,-906.85 -641.67,-909.60 -642.22,-913.45"/>
    </edge>
    <edge id=":J169_2" function="internal">
        <lane id=":J169_2_0" index="0" speed="6.51" length="9.03" shape="-639.02,-913.45 -638.67,-911.00 -637.62,-909.25 -635.87,-908.20 -633.42,-907.85"/>
    </edge>
    <edge id=":J169_3" function="internal">
        <lane id=":J169_3_0" index="0" speed="8.00" length="14.19" shape="-639.02,-913.45 -639.57,-909.60 -641.22,-906.85 -643.97,-905.20 -647.82,-904.65"/>
    </edge>
    <edge id=":J169_4" function="internal">
        <lane id=":J169_4_0" index="0" speed="6.51" length="9.03" shape="-647.82,-907.85 -645.37,-908.20 -643.62,-909.25 -642.57,-911.00 -642.22,-913.45"/>
    </edge>
    <edge id=":J169_5" function="internal">
        <lane id=":J169_5_0" index="0" speed="13.89" length="14.40" shape="-647.82,-907.85 -633.42,-907.85"/>
    </edge>
    <edge id=":J170_0" function="internal">
        <lane id=":J170_0_0" index="0" speed="3.90" length="2.58" shape="-642.22,-968.68 -642.32,-969.38 -642.62,-969.88 -643.12,-970.18 -643.82,-970.28"/>
    </edge>
    <edge id=":J170_1" function="internal">
        <lane id=":J170_1_0" index="0" speed="6.08" length="7.74" shape="-643.82,-973.48 -641.72,-973.18 -640.22,-972.28 -639.32,-970.78 -639.02,-968.68"/>
    </edge>
    <edge id=":J171_0" function="internal">
        <lane id=":J171_0_0" index="0" speed="6.51" length="9.03" shape="-554.72,-899.05 -555.07,-901.50 -556.12,-903.25 -557.87,-904.30 -560.32,-904.65"/>
    </edge>
    <edge id=":J171_1" function="internal">
        <lane id=":J171_1_0" index="0" speed="8.00" length="14.19" shape="-554.72,-899.05 -554.17,-902.90 -552.52,-905.65 -549.77,-907.30 -545.92,-907.85"/>
    </edge>
    <edge id=":J171_2" function="internal">
        <lane id=":J171_2_0" index="0" speed="6.51" length="9.03" shape="-545.92,-904.65 -548.37,-904.30 -550.12,-903.25 -551.17,-901.50 -551.52,-899.05"/>
    </edge>
    <edge id=":J171_3" function="internal">
        <lane id=":J171_3_0" index="0" speed="13.89" length="14.40" shape="-545.92,-904.65 -560.32,-904.65"/>
    </edge>
    <edge id=":J171_4" function="internal">
        <lane id=":J171_4_0" index="0" speed="13.89" length="14.40" shape="-560.32,-907.85 -545.92,-907.85"/>
    </edge>
    <edge id=":J171_5" function="internal">
        <lane id=":J171_5_0" index="0" speed="8.00" length="4.07" shape="-560.32,-907.85 -556.47,-907.30 -556.32,-907.21"/>
    </edge>
    <edge id=":J171_6" function="internal">
        <lane id=":J171_6_0" index="0" speed="8.00" length="10.13" shape="-556.32,-907.21 -553.72,-905.65 -552.07,-902.90 -551.52,-899.05"/>
    </edge>
    <edge id=":J173_0" function="internal">
        <lane id=":J173_0_0" index="0" speed="6.51" length="9.03" shape="-432.85,-899.05 -433.20,-901.50 -434.25,-903.25 -436.00,-904.30 -438.45,-904.65"/>
    </edge>
    <edge id=":J173_1" function="internal">
        <lane id=":J173_1_0" index="0" speed="8.00" length="14.19" shape="-432.85,-899.05 -432.30,-902.90 -430.65,-905.65 -427.90,-907.30 -424.05,-907.85"/>
    </edge>
    <edge id=":J173_2" function="internal">
        <lane id=":J173_2_0" index="0" speed="6.51" length="9.03" shape="-424.05,-904.65 -426.50,-904.30 -428.25,-903.25 -429.30,-901.50 -429.65,-899.05"/>
    </edge>
    <edge id=":J173_3" function="internal">
        <lane id=":J173_3_0" index="0" speed="13.89" length="14.40" shape="-424.05,-904.65 -438.45,-904.65"/>
    </edge>
    <edge id=":J173_4" function="internal">
        <lane id=":J173_4_0" index="0" speed="13.89" length="14.40" shape="-438.45,-907.85 -424.05,-907.85"/>
    </edge>
    <edge id=":J173_5" function="internal">
        <lane id=":J173_5_0" index="0" speed="8.00" length="4.07" shape="-438.45,-907.85 -434.60,-907.30 -434.45,-907.21"/>
    </edge>
    <edge id=":J173_6" function="internal">
        <lane id=":J173_6_0" index="0" speed="8.00" length="10.13" shape="-434.45,-907.21 -431.85,-905.65 -430.20,-902.90 -429.65,-899.05"/>
    </edge>
    <edge id=":J174_0" function="internal">
        <lane id=":J174_0_0" index="0" speed="6.08" length="7.74" shape="-428.05,-814.02 -430.15,-814.32 -431.65,-815.22 -432.55,-816.72 -432.85,-818.82"/>
    </edge>
    <edge id=":J174_1" function="internal">
        <lane id=":J174_1_0" index="0" speed="3.90" length="2.58" shape="-429.65,-818.82 -429.55,-818.12 -429.25,-817.62 -428.75,-817.32 -428.05,-817.22"/>
    </edge>
    <edge id=":J175_0" function="internal">
        <lane id=":J175_0_0" index="0" speed="6.51" length="9.03" shape="-151.60,-899.05 -151.95,-901.50 -153.00,-903.25 -154.75,-904.30 -157.20,-904.65"/>
    </edge>
    <edge id=":J175_1" function="internal">
        <lane id=":J175_1_0" index="0" speed="8.00" length="14.19" shape="-151.60,-899.05 -151.05,-902.90 -149.40,-905.65 -146.65,-907.30 -142.80,-907.85"/>
    </edge>
    <edge id=":J175_2" function="internal">
        <lane id=":J175_2_0" index="0" speed="6.51" length="9.03" shape="-142.80,-904.65 -145.25,-904.30 -147.00,-903.25 -148.05,-901.50 -148.40,-899.05"/>
    </edge>
    <edge id=":J175_3" function="internal">
        <lane id=":J175_3_0" index="0" speed="13.89" length="14.40" shape="-142.80,-904.65 -157.20,-904.65"/>
    </edge>
    <edge id=":J175_4" function="internal">
        <lane id=":J175_4_0" index="0" speed="13.89" length="14.40" shape="-157.20,-907.85 -142.80,-907.85"/>
    </edge>
    <edge id=":J175_5" function="internal">
        <lane id=":J175_5_0" index="0" speed="8.00" length="4.07" shape="-157.20,-907.85 -153.35,-907.30 -153.20,-907.21"/>
    </edge>
    <edge id=":J175_6" function="internal">
        <lane id=":J175_6_0" index="0" speed="8.00" length="10.13" shape="-153.20,-907.21 -150.60,-905.65 -148.95,-902.90 -148.40,-899.05"/>
    </edge>
    <edge id=":J176_0" function="internal">
        <lane id=":J176_0_0" index="0" speed="6.08" length="7.74" shape="-146.80,-835.90 -148.90,-836.20 -150.40,-837.10 -151.30,-838.60 -151.60,-840.70"/>
    </edge>
    <edge id=":J176_1" function="internal">
        <lane id=":J176_1_0" index="0" speed="3.90" length="2.58" shape="-148.40,-840.70 -148.30,-840.00 -148.00,-839.50 -147.50,-839.20 -146.80,-839.10"/>
    </edge>
    <edge id=":J178_0" function="internal">
        <lane id=":J178_0_0" index="0" speed="6.08" length="7.74" shape="1.60,-909.45 1.30,-907.35 0.40,-905.85 -1.10,-904.95 -3.20,-904.65"/>
    </edge>
    <edge id=":J178_1" function="internal">
        <lane id=":J178_1_0" index="0" speed="3.90" length="2.58" shape="-3.20,-907.85 -2.50,-907.95 -2.00,-908.25 -1.70,-908.75 -1.60,-909.45"/>
    </edge>
    <edge id=":J179_0" function="internal">
        <lane id=":J179_0_0" index="0" speed="6.51" length="9.03" shape="-1207.85,-927.18 -1208.20,-929.63 -1209.25,-931.38 -1211.00,-932.43 -1213.45,-932.78"/>
    </edge>
    <edge id=":J179_1" function="internal">
        <lane id=":J179_1_0" index="0" speed="8.00" length="14.19" shape="-1207.85,-927.18 -1207.30,-931.03 -1205.65,-933.78 -1202.90,-935.43 -1199.05,-935.98"/>
    </edge>
    <edge id=":J179_2" function="internal">
        <lane id=":J179_2_0" index="0" speed="6.51" length="9.03" shape="-1199.05,-932.78 -1201.50,-932.43 -1203.25,-931.38 -1204.30,-929.63 -1204.65,-927.18"/>
    </edge>
    <edge id=":J179_3" function="internal">
        <lane id=":J179_3_0" index="0" speed="13.89" length="14.40" shape="-1199.05,-932.78 -1213.45,-932.78"/>
    </edge>
    <edge id=":J179_4" function="internal">
        <lane id=":J179_4_0" index="0" speed="13.89" length="14.40" shape="-1213.45,-935.98 -1199.05,-935.98"/>
    </edge>
    <edge id=":J179_5" function="internal">
        <lane id=":J179_5_0" index="0" speed="8.00" length="4.07" shape="-1213.45,-935.98 -1209.60,-935.43 -1209.45,-935.34"/>
    </edge>
    <edge id=":J179_6" function="internal">
        <lane id=":J179_6_0" index="0" speed="8.00" length="10.13" shape="-1209.45,-935.34 -1206.85,-933.78 -1205.20,-931.03 -1204.65,-927.18"/>
    </edge>
    <edge id=":J180_0" function="internal">
        <lane id=":J180_0_0" index="0" speed="13.89" length="14.40" shape="-1049.05,-932.78 -1063.45,-932.78"/>
    </edge>
    <edge id=":J180_1" function="internal">
        <lane id=":J180_1_0" index="0" speed="8.00" length="4.07" shape="-1049.05,-932.78 -1052.90,-933.33 -1053.05,-933.42"/>
    </edge>
    <edge id=":J180_6" function="internal">
        <lane id=":J180_6_0" index="0" speed="8.00" length="10.13" shape="-1053.05,-933.42 -1055.65,-934.98 -1057.30,-937.73 -1057.85,-941.58"/>
    </edge>
    <edge id=":J180_2" function="internal">
        <lane id=":J180_2_0" index="0" speed="6.51" length="9.03" shape="-1054.65,-941.58 -1054.30,-939.13 -1053.25,-937.38 -1051.50,-936.33 -1049.05,-935.98"/>
    </edge>
    <edge id=":J180_3" function="internal">
        <lane id=":J180_3_0" index="0" speed="8.00" length="14.19" shape="-1054.65,-941.58 -1055.20,-937.73 -1056.85,-934.98 -1059.60,-933.33 -1063.45,-932.78"/>
    </edge>
    <edge id=":J180_4" function="internal">
        <lane id=":J180_4_0" index="0" speed="6.51" length="9.03" shape="-1063.45,-935.98 -1061.00,-936.33 -1059.25,-937.38 -1058.20,-939.13 -1057.85,-941.58"/>
    </edge>
    <edge id=":J180_5" function="internal">
        <lane id=":J180_5_0" index="0" speed="13.89" length="14.40" shape="-1063.45,-935.98 -1049.05,-935.98"/>
    </edge>
    <edge id=":J182_0" function="internal">
        <lane id=":J182_0_0" index="0" speed="6.51" length="9.03" shape="-1057.85,-995.92 -1058.20,-998.37 -1059.25,-1000.12 -1061.00,-1001.17 -1063.45,-1001.52"/>
    </edge>
    <edge id=":J182_1" function="internal">
        <lane id=":J182_1_0" index="0" speed="13.89" length="14.40" shape="-1057.85,-995.92 -1057.85,-1010.32"/>
    </edge>
    <edge id=":J182_2" function="internal">
        <lane id=":J182_2_0" index="0" speed="8.00" length="4.07" shape="-1057.85,-995.92 -1057.30,-999.77 -1057.21,-999.92"/>
    </edge>
    <edge id=":J182_12" function="internal">
        <lane id=":J182_12_0" index="0" speed="8.00" length="10.13" shape="-1057.21,-999.92 -1055.65,-1002.52 -1052.90,-1004.17 -1049.05,-1004.72"/>
    </edge>
    <edge id=":J182_3" function="internal">
        <lane id=":J182_3_0" index="0" speed="6.51" length="9.03" shape="-1049.05,-1001.52 -1051.50,-1001.17 -1053.25,-1000.12 -1054.30,-998.37 -1054.65,-995.92"/>
    </edge>
    <edge id=":J182_4" function="internal">
        <lane id=":J182_4_0" index="0" speed="13.89" length="14.40" shape="-1049.05,-1001.52 -1063.45,-1001.52"/>
    </edge>
    <edge id=":J182_5" function="internal">
        <lane id=":J182_5_0" index="0" speed="8.00" length="14.19" shape="-1049.05,-1001.52 -1052.90,-1002.07 -1055.65,-1003.72 -1057.30,-1006.47 -1057.85,-1010.32"/>
    </edge>
    <edge id=":J182_6" function="internal">
        <lane id=":J182_6_0" index="0" speed="6.51" length="9.03" shape="-1054.65,-1010.32 -1054.30,-1007.87 -1053.25,-1006.12 -1051.50,-1005.07 -1049.05,-1004.72"/>
    </edge>
    <edge id=":J182_7" function="internal">
        <lane id=":J182_7_0" index="0" speed="13.89" length="14.40" shape="-1054.65,-1010.32 -1054.65,-995.92"/>
    </edge>
    <edge id=":J182_8" function="internal">
        <lane id=":J182_8_0" index="0" speed="8.00" length="4.07" shape="-1054.65,-1010.32 -1055.20,-1006.47 -1055.29,-1006.32"/>
    </edge>
    <edge id=":J182_13" function="internal">
        <lane id=":J182_13_0" index="0" speed="8.00" length="10.13" shape="-1055.29,-1006.32 -1056.85,-1003.72 -1059.60,-1002.07 -1063.45,-1001.52"/>
    </edge>
    <edge id=":J182_9" function="internal">
        <lane id=":J182_9_0" index="0" speed="6.51" length="9.03" shape="-1063.45,-1004.72 -1061.00,-1005.07 -1059.25,-1006.12 -1058.20,-1007.87 -1057.85,-1010.32"/>
    </edge>
    <edge id=":J182_10" function="internal">
        <lane id=":J182_10_0" index="0" speed="13.89" length="14.40" shape="-1063.45,-1004.72 -1049.05,-1004.72"/>
    </edge>
    <edge id=":J182_11" function="internal">
        <lane id=":J182_11_0" index="0" speed="8.00" length="14.19" shape="-1063.45,-1004.72 -1059.60,-1004.17 -1056.85,-1002.52 -1055.20,-999.77 -1054.65,-995.92"/>
    </edge>
    <edge id=":J183_0" function="internal">
        <lane id=":J183_0_0" index="0" speed="13.89" length="14.40" shape="-664.68,-932.78 -679.08,-932.78"/>
    </edge>
    <edge id=":J183_1" function="internal">
        <lane id=":J183_1_0" index="0" speed="8.00" length="4.07" shape="-664.68,-932.78 -668.53,-933.33 -668.68,-933.42"/>
    </edge>
    <edge id=":J183_6" function="internal">
        <lane id=":J183_6_0" index="0" speed="8.00" length="10.13" shape="-668.68,-933.42 -671.28,-934.98 -672.93,-937.73 -673.48,-941.58"/>
    </edge>
    <edge id=":J183_2" function="internal">
        <lane id=":J183_2_0" index="0" speed="6.51" length="9.03" shape="-670.28,-941.58 -669.93,-939.13 -668.88,-937.38 -667.13,-936.33 -664.68,-935.98"/>
    </edge>
    <edge id=":J183_3" function="internal">
        <lane id=":J183_3_0" index="0" speed="8.00" length="14.19" shape="-670.28,-941.58 -670.83,-937.73 -672.48,-934.98 -675.23,-933.33 -679.08,-932.78"/>
    </edge>
    <edge id=":J183_4" function="internal">
        <lane id=":J183_4_0" index="0" speed="6.51" length="9.03" shape="-679.08,-935.98 -676.63,-936.33 -674.88,-937.38 -673.83,-939.13 -673.48,-941.58"/>
    </edge>
    <edge id=":J183_5" function="internal">
        <lane id=":J183_5_0" index="0" speed="13.89" length="14.40" shape="-679.08,-935.98 -664.68,-935.98"/>
    </edge>
    <edge id=":J184_0" function="internal">
        <lane id=":J184_0_0" index="0" speed="6.51" length="9.03" shape="-673.48,-964.68 -673.83,-967.13 -674.88,-968.88 -676.63,-969.93 -679.08,-970.28"/>
    </edge>
    <edge id=":J184_1" function="internal">
        <lane id=":J184_1_0" index="0" speed="8.00" length="14.19" shape="-673.48,-964.68 -672.93,-968.53 -671.28,-971.28 -668.53,-972.93 -664.68,-973.48"/>
    </edge>
    <edge id=":J184_2" function="internal">
        <lane id=":J184_2_0" index="0" speed="6.51" length="9.03" shape="-664.68,-970.28 -667.13,-969.93 -668.88,-968.88 -669.93,-967.13 -670.28,-964.68"/>
    </edge>
    <edge id=":J184_3" function="internal">
        <lane id=":J184_3_0" index="0" speed="13.89" length="14.40" shape="-664.68,-970.28 -679.08,-970.28"/>
    </edge>
    <edge id=":J184_4" function="internal">
        <lane id=":J184_4_0" index="0" speed="13.89" length="14.40" shape="-679.08,-973.48 -664.68,-973.48"/>
    </edge>
    <edge id=":J184_5" function="internal">
        <lane id=":J184_5_0" index="0" speed="8.00" length="4.07" shape="-679.08,-973.48 -675.23,-972.93 -675.08,-972.84"/>
    </edge>
    <edge id=":J184_6" function="internal">
        <lane id=":J184_6_0" index="0" speed="8.00" length="10.13" shape="-675.08,-972.84 -672.48,-971.28 -670.83,-968.53 -670.28,-964.68"/>
    </edge>
    <edge id=":J185_0" function="internal">