<?xml version="1.0" encoding="UTF-8"?>

<!-- generated on 2023-06-26 20:37:30 by Eclipse SUMO netedit Version 1.17.0
<configuration xmlns:xsi="http://www.w3.org/2001/XMLSchema-instance" xsi:noNamespaceSchemaLocation="http://sumo.dlr.de/xsd/netconvertConfiguration.xsd">

    <input>
        <sumo-net-file value="/home/vishwajeet/ddp_workspace/src/mrpp_sumo/graph_sumo/pipeline2.net.xml"/>
    </input>

    <output>
        <output-file value="/home/vishwajeet/ddp_workspace/src/mrpp_sumo/graph_sumo/pipeline2.net.xml"/>
    </output>

    <processing>
        <geometry.min-radius.fix.railways value="false"/>
        <geometry.max-grade.fix value="false"/>
        <offset.disable-normalization value="true"/>
        <lefthand value="0"/>
    </processing>

    <junctions>
        <no-turnarounds value="true"/>
        <junctions.corner-detail value="5"/>
        <junctions.limit-turn-speed value="5.50"/>
        <rectangular-lane-cut value="0"/>
    </junctions>

    <pedestrian>
        <walkingareas value="0"/>
    </pedestrian>

</configuration>
-->

<net version="1.16" junctionCornerDetail="5" limitTurnSpeed="5.50" xmlns:xsi="http://www.w3.org/2001/XMLSchema-instance" xsi:noNamespaceSchemaLocation="http://sumo.dlr.de/xsd/net_file.xsd">

    <location netOffset="0.00,0.00" convBoundary="-260.94,-159.38,295.31,235.94" origBoundary="-10000000000.00,-10000000000.00,10000000000.00,10000000000.00" projParameter="!"/>

    <edge id=":J0_0" function="internal">
        <lane id=":J0_0_0" index="0" speed="6.51" length="9.03" shape="-29.72,113.45 -30.07,111.00 -31.12,109.25 -32.87,108.20 -35.32,107.85"/>
    </edge>
    <edge id=":J0_1" function="internal">
        <lane id=":J0_1_0" index="0" speed="13.89" length="14.40" shape="-29.72,113.45 -29.72,99.05"/>
    </edge>
    <edge id=":J0_2" function="internal">
        <lane id=":J0_2_0" index="0" speed="8.00" length="4.07" shape="-29.72,113.45 -29.17,109.60 -29.08,109.45"/>
    </edge>
    <edge id=":J0_3" function="internal">
        <lane id=":J0_3_0" index="0" speed="3.65" length="1.44" shape="-29.72,113.45 -28.92,112.25"/>
    </edge>
    <edge id=":J0_16" function="internal">
        <lane id=":J0_16_0" index="0" speed="8.00" length="10.13" shape="-29.08,109.45 -27.52,106.85 -24.77,105.20 -20.92,104.65"/>
    </edge>
    <edge id=":J0_17" function="internal">
        <lane id=":J0_17_0" index="0" speed="3.65" length="3.23" shape="-28.92,112.25 -28.12,111.85 -27.32,112.25 -26.52,113.45"/>
    </edge>
    <edge id=":J0_4" function="internal">
        <lane id=":J0_4_0" index="0" speed="6.51" length="9.03" shape="-20.92,107.85 -23.37,108.20 -25.12,109.25 -26.17,111.00 -26.52,113.45"/>
    </edge>
    <edge id=":J0_5" function="internal">
        <lane id=":J0_5_0" index="0" speed="13.89" length="14.40" shape="-20.92,107.85 -35.32,107.85"/>
    </edge>
    <edge id=":J0_6" function="internal">
        <lane id=":J0_6_0" index="0" speed="8.00" length="14.19" shape="-20.92,107.85 -24.77,107.30 -27.52,105.65 -29.17,102.90 -29.72,99.05"/>
    </edge>
    <edge id=":J0_7" function="internal">
        <lane id=":J0_7_0" index="0" speed="3.65" length="4.67" shape="-20.92,107.85 -22.12,107.05 -22.52,106.25 -22.12,105.45 -20.92,104.65"/>
    </edge>
    <edge id=":J0_8" function="internal">
        <lane id=":J0_8_0" index="0" speed="6.51" length="9.03" shape="-26.52,99.05 -26.17,101.50 -25.12,103.25 -23.37,104.30 -20.92,104.65"/>
    </edge>
    <edge id=":J0_9" function="internal">
        <lane id=":J0_9_0" index="0" speed="13.89" length="14.40" shape="-26.52,99.05 -26.52,113.45"/>
    </edge>
    <edge id=":J0_10" function="internal">
        <lane id=":J0_10_0" index="0" speed="8.00" length="4.07" shape="-26.52,99.05 -27.07,102.90 -27.16,103.05"/>
    </edge>
    <edge id=":J0_11" function="internal">
        <lane id=":J0_11_0" index="0" speed="3.65" length="1.44" shape="-26.52,99.05 -27.32,100.25"/>
    </edge>
    <edge id=":J0_18" function="internal">
        <lane id=":J0_18_0" index="0" speed="8.00" length="10.13" shape="-27.16,103.05 -28.72,105.65 -31.47,107.30 -35.32,107.85"/>
    </edge>
    <edge id=":J0_19" function="internal">
        <lane id=":J0_19_0" index="0" speed="3.65" length="3.23" shape="-27.32,100.25 -28.12,100.65 -28.92,100.25 -29.72,99.05"/>
    </edge>
    <edge id=":J0_12" function="internal">
        <lane id=":J0_12_0" index="0" speed="6.51" length="9.03" shape="-35.32,104.65 -32.87,104.30 -31.12,103.25 -30.07,101.50 -29.72,99.05"/>
    </edge>
    <edge id=":J0_13" function="internal">
        <lane id=":J0_13_0" index="0" speed="13.89" length="14.40" shape="-35.32,104.65 -20.92,104.65"/>
    </edge>
    <edge id=":J0_14" function="internal">
        <lane id=":J0_14_0" index="0" speed="8.00" length="14.19" shape="-35.32,104.65 -31.47,105.20 -28.72,106.85 -27.07,109.60 -26.52,113.45"/>
    </edge>
    <edge id=":J0_15" function="internal">
        <lane id=":J0_15_0" index="0" speed="3.65" length="4.67" shape="-35.32,104.65 -34.12,105.45 -33.72,106.25 -34.12,107.05 -35.32,107.85"/>
    </edge>
    <edge id=":J1_0" function="internal">
        <lane id=":J1_0_0" index="0" speed="13.89" length="14.40" shape="7.20,107.85 -7.20,107.85"/>
    </edge>
    <edge id=":J1_1" function="internal">
        <lane id=":J1_1_0" index="0" speed="8.00" length="4.07" shape="7.20,107.85 3.35,107.30 3.20,107.21"/>
    </edge>
    <edge id=":J1_2" function="internal">
        <lane id=":J1_2_0" index="0" speed="3.65" length="1.44" shape="7.20,107.85 6.00,107.05"/>
    </edge>
    <edge id=":J1_9" function="internal">
        <lane id=":J1_9_0" index="0" speed="8.00" length="10.13" shape="3.20,107.21 0.60,105.65 -1.05,102.90 -1.60,99.05"/>
    </edge>
    <edge id=":J1_10" function="internal">
        <lane id=":J1_10_0" index="0" speed="3.65" length="3.23" shape="6.00,107.05 5.60,106.25 6.00,105.45 7.20,104.65"/>
    </edge>
    <edge id=":J1_3" function="internal">
        <lane id=":J1_3_0" index="0" speed="6.51" length="9.03" shape="1.60,99.05 1.95,101.50 3.00,103.25 4.75,104.30 7.20,104.65"/>
    </edge>
    <edge id=":J1_4" function="internal">
        <lane id=":J1_4_0" index="0" speed="8.00" length="14.19" shape="1.60,99.05 1.05,102.90 -0.60,105.65 -3.35,107.30 -7.20,107.85"/>
    </edge>
    <edge id=":J1_5" function="internal">
        <lane id=":J1_5_0" index="0" speed="3.65" length="4.67" shape="1.60,99.05 0.80,100.25 0.00,100.65 -0.80,100.25 -1.60,99.05"/>
    </edge>
    <edge id=":J1_6" function="internal">
        <lane id=":J1_6_0" index="0" speed="6.51" length="9.03" shape="-7.20,104.65 -4.75,104.30 -3.00,103.25 -1.95,101.50 -1.60,99.05"/>
    </edge>
    <edge id=":J1_7" function="internal">
        <lane id=":J1_7_0" index="0" speed="13.89" length="14.40" shape="-7.20,104.65 7.20,104.65"/>
    </edge>
    <edge id=":J1_8" function="internal">
        <lane id=":J1_8_0" index="0" speed="3.65" length="1.44" shape="-7.20,104.65 -6.00,105.45"/>
    </edge>
    <edge id=":J1_11" function="internal">
        <lane id=":J1_11_0" index="0" speed="3.65" length="3.23" shape="-6.00,105.45 -5.60,106.25 -6.00,107.05 -7.20,107.85"/>
    </edge>
    <edge id=":J10_0" function="internal">
        <lane id=":J10_0_0" index="0" speed="6.51" length="9.03" shape="-182.85,18.14 -183.20,15.69 -184.25,13.94 -186.00,12.89 -188.45,12.54"/>
    </edge>
    <edge id=":J10_1" function="internal">
        <lane id=":J10_1_0" index="0" speed="13.89" length="14.40" shape="-182.85,18.14 -182.85,3.74"/>
    </edge>
    <edge id=":J10_2" function="internal">
        <lane id=":J10_2_0" index="0" speed="3.65" length="1.44" shape="-182.85,18.14 -182.05,16.94"/>
    </edge>
    <edge id=":J10_9" function="internal">
        <lane id=":J10_9_0" index="0" speed="3.65" length="3.23" shape="-182.05,16.94 -181.25,16.54 -180.45,16.94 -179.65,18.14"/>
    </edge>
    <edge id=":J10_3" function="internal">
        <lane id=":J10_3_0" index="0" speed="13.89" length="14.40" shape="-179.65,3.74 -179.65,18.14"/>
    </edge>
    <edge id=":J10_4" function="internal">
        <lane id=":J10_4_0" index="0" speed="8.00" length="4.07" shape="-179.65,3.74 -180.20,7.59 -180.29,7.74"/>
    </edge>
    <edge id=":J10_5" function="internal">
        <lane id=":J10_5_0" index="0" speed="3.65" length="1.44" shape="-179.65,3.74 -180.45,4.94"/>
    </edge>
    <edge id=":J10_10" function="internal">
        <lane id=":J10_10_0" index="0" speed="8.00" length="10.13" shape="-180.29,7.74 -181.85,10.34 -184.60,11.99 -188.45,12.54"/>
    </edge>
    <edge id=":J10_11" function="internal">
        <lane id=":J10_11_0" index="0" speed="3.65" length="3.23" shape="-180.45,4.94 -181.25,5.34 -182.05,4.94 -182.85,3.74"/>
    </edge>
    <edge id=":J10_6" function="internal">
        <lane id=":J10_6_0" index="0" speed="6.51" length="9.03" shape="-188.45,9.34 -186.00,8.99 -184.25,7.94 -183.20,6.19 -182.85,3.74"/>
    </edge>
    <edge id=":J10_7" function="internal">
        <lane id=":J10_7_0" index="0" speed="8.00" length="14.19" shape="-188.45,9.34 -184.60,9.89 -181.85,11.54 -180.20,14.29 -179.65,18.14"/>
    </edge>
    <edge id=":J10_8" function="internal">
        <lane id=":J10_8_0" index="0" speed="3.65" length="4.67" shape="-188.45,9.34 -187.25,10.14 -186.85,10.94 -187.25,11.74 -188.45,12.54"/>
    </edge>
    <edge id=":J11_0" function="internal">
        <lane id=":J11_0_0" index="0" speed="13.89" length="14.40" shape="-212.54,55.64 -212.54,41.24"/>
    </edge>
    <edge id=":J11_1" function="internal">
        <lane id=":J11_1_0" index="0" speed="8.00" length="4.07" shape="-212.54,55.64 -211.99,51.79 -211.90,51.64"/>
    </edge>
    <edge id=":J11_2" function="internal">
        <lane id=":J11_2_0" index="0" speed="3.65" length="1.44" shape="-212.54,55.64 -211.74,54.44"/>
    </edge>
    <edge id=":J11_9" function="internal">
        <lane id=":J11_9_0" index="0" speed="8.00" length="10.13" shape="-211.90,51.64 -210.34,49.04 -207.59,47.39 -203.74,46.84"/>
    </edge>
    <edge id=":J11_10" function="internal">
        <lane id=":J11_10_0" index="0" speed="3.65" length="3.23" shape="-211.74,54.44 -210.94,54.04 -210.14,54.44 -209.34,55.64"/>
    </edge>
    <edge id=":J11_3" function="internal">
        <lane id=":J11_3_0" index="0" speed="6.51" length="9.03" shape="-203.74,50.04 -206.19,50.39 -207.94,51.44 -208.99,53.19 -209.34,55.64"/>
    </edge>
    <edge id=":J11_4" function="internal">
        <lane id=":J11_4_0" index="0" speed="8.00" length="14.19" shape="-203.74,50.04 -207.59,49.49 -210.34,47.84 -211.99,45.09 -212.54,41.24"/>
    </edge>
    <edge id=":J11_5" function="internal">
        <lane id=":J11_5_0" index="0" speed="3.65" length="4.67" shape="-203.74,50.04 -204.94,49.24 -205.34,48.44 -204.94,47.64 -203.74,46.84"/>
    </edge>
    <edge id=":J11_6" function="internal">
        <lane id=":J11_6_0" index="0" speed="6.51" length="9.03" shape="-209.34,41.24 -208.99,43.69 -207.94,45.44 -206.19,46.49 -203.74,46.84"/>
    </edge>
    <edge id=":J11_7" function="internal">
        <lane id=":J11_7_0" index="0" speed="13.89" length="14.40" shape="-209.34,41.24 -209.34,55.64"/>
    </edge>
    <edge id=":J11_8" function="internal">
        <lane id=":J11_8_0" index="0" speed="3.65" length="1.44" shape="-209.34,41.24 -210.14,42.44"/>
    </edge>
    <edge id=":J11_11" function="internal">
        <lane id=":J11_11_0" index="0" speed="3.65" length="3.23" shape="-210.14,42.44 -210.94,42.84 -211.74,42.44 -212.54,41.24"/>
    </edge>
    <edge id=":J12_0" function="internal">
        <lane id=":J12_0_0" index="0" speed="6.51" length="9.03" shape="-212.54,-2.18 -212.89,-4.63 -213.94,-6.38 -215.69,-7.43 -218.14,-7.78"/>
    </edge>
    <edge id=":J12_1" function="internal">
        <lane id=":J12_1_0" index="0" speed="13.89" length="14.40" shape="-212.54,-2.18 -212.54,-16.58"/>
    </edge>
    <edge id=":J12_2" function="internal">
        <lane id=":J12_2_0" index="0" speed="3.65" length="1.44" shape="-212.54,-2.18 -211.74,-3.38"/>
    </edge>
    <edge id=":J12_9" function="internal">
        <lane id=":J12_9_0" index="0" speed="3.65" length="3.23" shape="-211.74,-3.38 -210.94,-3.78 -210.14,-3.38 -209.34,-2.18"/>
    </edge>
    <edge id=":J12_3" function="internal">
        <lane id=":J12_3_0" index="0" speed="13.89" length="14.40" shape="-209.34,-16.58 -209.34,-2.18"/>
    </edge>
    <edge id=":J12_4" function="internal">
        <lane id=":J12_4_0" index="0" speed="8.00" length="4.07" shape="-209.34,-16.58 -209.89,-12.73 -209.98,-12.58"/>
    </edge>
    <edge id=":J12_5" function="internal">
        <lane id=":J12_5_0" index="0" speed="3.65" length="1.44" shape="-209.34,-16.58 -210.14,-15.38"/>
    </edge>
    <edge id=":J12_10" function="internal">
        <lane id=":J12_10_0" index="0" speed="8.00" length="10.13" shape="-209.98,-12.58 -211.54,-9.98 -214.29,-8.33 -218.14,-7.78"/>
    </edge>
    <edge id=":J12_11" function="internal">
        <lane id=":J12_11_0" index="0" speed="3.65" length="3.23" shape="-210.14,-15.38 -210.94,-14.98 -211.74,-15.38 -212.54,-16.58"/>
    </edge>
    <edge id=":J12_6" function="internal">
        <lane id=":J12_6_0" index="0" speed="6.51" length="9.03" shape="-218.14,-10.98 -215.69,-11.33 -213.94,-12.38 -212.89,-14.13 -212.54,-16.58"/>
    </edge>
    <edge id=":J12_7" function="internal">
        <lane id=":J12_7_0" index="0" speed="8.00" length="14.19" shape="-218.14,-10.98 -214.29,-10.43 -211.54,-8.78 -209.89,-6.03 -209.34,-2.18"/>
    </edge>
    <edge id=":J12_8" function="internal">
        <lane id=":J12_8_0" index="0" speed="3.65" length="4.67" shape="-218.14,-10.98 -216.94,-10.18 -216.54,-9.38 -216.94,-8.58 -218.14,-7.78"/>
    </edge>
    <edge id=":J13_0" function="internal">
        <lane id=":J13_0_0" index="0" speed="3.65" length="4.67" shape="-260.94,-7.78 -262.14,-8.58 -262.54,-9.38 -262.14,-10.18 -260.94,-10.98"/>
    </edge>
    <edge id=":J14_0" function="internal">
        <lane id=":J14_0_0" index="0" speed="3.90" length="2.58" shape="-212.54,-38.99 -212.64,-39.69 -212.94,-40.19 -213.44,-40.49 -214.14,-40.59"/>
    </edge>
    <edge id=":J14_1" function="internal">
        <lane id=":J14_1_0" index="0" speed="3.65" length="1.30" shape="-212.54,-38.99 -211.82,-40.07"/>
    </edge>
    <edge id=":J14_4" function="internal">
        <lane id=":J14_4_0" index="0" speed="3.65" length="3.37" shape="-211.82,-40.07 -211.74,-40.19 -210.94,-40.59 -210.14,-40.19 -209.34,-38.99"/>
    </edge>
    <edge id=":J14_2" function="internal">
        <lane id=":J14_2_0" index="0" speed="6.08" length="7.74" shape="-214.14,-43.79 -212.04,-43.49 -210.54,-42.59 -209.64,-41.09 -209.34,-38.99"/>
    </edge>
    <edge id=":J14_3" function="internal">
        <lane id=":J14_3_0" index="0" speed="3.65" length="1.44" shape="-214.14,-43.79 -212.94,-42.99"/>
    </edge>
    <edge id=":J14_5" function="internal">
        <lane id=":J14_5_0" index="0" speed="3.65" length="3.23" shape="-212.94,-42.99 -212.54,-42.19 -212.94,-41.39 -214.14,-40.59"/>
    </edge>
    <edge id=":J15_0" function="internal">
        <lane id=":J15_0_0" index="0" speed="3.65" length="4.67" shape="-260.94,-40.59 -262.14,-41.39 -262.54,-42.19 -262.14,-42.99 -260.94,-43.79"/>
    </edge>
    <edge id=":J16_0" function="internal">
        <lane id=":J16_0_0" index="0" speed="13.89" length="14.40" shape="-29.72,72.82 -29.72,58.42"/>
    </edge>
    <edge id=":J16_1" function="internal">
        <lane id=":J16_1_0" index="0" speed="8.00" length="4.07" shape="-29.72,72.82 -29.17,68.97 -29.08,68.82"/>
    </edge>
    <edge id=":J16_2" function="internal">
        <lane id=":J16_2_0" index="0" speed="3.65" length="1.44" shape="-29.72,72.82 -28.92,71.62"/>
    </edge>
    <edge id=":J16_9" function="internal">
        <lane id=":J16_9_0" index="0" speed="8.00" length="10.13" shape="-29.08,68.82 -27.52,66.22 -24.77,64.57 -20.92,64.02"/>
    </edge>
    <edge id=":J16_10" function="internal">
        <lane id=":J16_10_0" index="0" speed="3.65" length="3.23" shape="-28.92,71.62 -28.12,71.22 -27.32,71.62 -26.52,72.82"/>
    </edge>
    <edge id=":J16_3" function="internal">
        <lane id=":J16_3_0" index="0" speed="6.51" length="9.03" shape="-20.92,67.22 -23.37,67.57 -25.12,68.62 -26.17,70.37 -26.52,72.82"/>
    </edge>
    <edge id=":J16_4" function="internal">
        <lane id=":J16_4_0" index="0" speed="8.00" length="14.19" shape="-20.92,67.22 -24.77,66.67 -27.52,65.02 -29.17,62.27 -29.72,58.42"/>
    </edge>
    <edge id=":J16_5" function="internal">
        <lane id=":J16_5_0" index="0" speed="3.65" length="4.67" shape="-20.92,67.22 -22.12,66.42 -22.52,65.62 -22.12,64.82 -20.92,64.02"/>
    </edge>
    <edge id=":J16_6" function="internal">
        <lane id=":J16_6_0" index="0" speed="6.51" length="9.03" shape="-26.52,58.42 -26.17,60.87 -25.12,62.62 -23.37,63.67 -20.92,64.02"/>
    </edge>
    <edge id=":J16_7" function="internal">
        <lane id=":J16_7_0" index="0" speed="13.89" length="14.40" shape="-26.52,58.42 -26.52,72.82"/>
    </edge>
    <edge id=":J16_8" function="internal">
        <lane id=":J16_8_0" index="0" speed="3.65" length="1.44" shape="-26.52,58.42 -27.32,59.62"/>
    </edge>
    <edge id=":J16_11" function="internal">
        <lane id=":J16_11_0" index="0" speed="3.65" length="3.23" shape="-27.32,59.62 -28.12,60.02 -28.92,59.62 -29.72,58.42"/>
    </edge>
    <edge id=":J17_0" function="internal">
        <lane id=":J17_0_0" index="0" speed="13.89" length="14.40" shape="30.64,67.22 16.24,67.22"/>
    </edge>
    <edge id=":J17_1" function="internal">
        <lane id=":J17_1_0" index="0" speed="8.00" length="4.07" shape="30.64,67.22 26.79,66.67 26.64,66.58"/>
    </edge>
    <edge id=":J17_2" function="internal">
        <lane id=":J17_2_0" index="0" speed="3.65" length="1.44" shape="30.64,67.22 29.44,66.42"/>
    </edge>
    <edge id=":J17_9" function="internal">
        <lane id=":J17_9_0" index="0" speed="8.00" length="10.13" shape="26.64,66.58 24.04,65.02 22.39,62.27 21.84,58.42"/>
    </edge>
    <edge id=":J17_10" function="internal">
        <lane id=":J17_10_0" index="0" speed="3.65" length="3.23" shape="29.44,66.42 29.04,65.62 29.44,64.82 30.64,64.02"/>
    </edge>
    <edge id=":J17_3" function="internal">
        <lane id=":J17_3_0" index="0" speed="6.51" length="9.03" shape="25.04,58.42 25.39,60.87 26.44,62.62 28.19,63.67 30.64,64.02"/>
    </edge>
    <edge id=":J17_4" function="internal">
        <lane id=":J17_4_0" index="0" speed="8.00" length="14.19" shape="25.04,58.42 24.49,62.27 22.84,65.02 20.09,66.67 16.24,67.22"/>
    </edge>
    <edge id=":J17_5" function="internal">
        <lane id=":J17_5_0" index="0" speed="3.65" length="4.67" shape="25.04,58.42 24.24,59.62 23.44,60.02 22.64,59.62 21.84,58.42"/>
    </edge>
    <edge id=":J17_6" function="internal">
        <lane id=":J17_6_0" index="0" speed="6.51" length="9.03" shape="16.24,64.02 18.69,63.67 20.44,62.62 21.49,60.87 21.84,58.42"/>
    </edge>
    <edge id=":J17_7" function="internal">
        <lane id=":J17_7_0" index="0" speed="13.89" length="14.40" shape="16.24,64.02 30.64,64.02"/>
    </edge>
    <edge id=":J17_8" function="internal">
        <lane id=":J17_8_0" index="0" speed="3.65" length="1.44" shape="16.24,64.02 17.44,64.82"/>
    </edge>
    <edge id=":J17_11" function="internal">
        <lane id=":J17_11_0" index="0" speed="3.65" length="3.23" shape="17.44,64.82 17.84,65.62 17.44,66.42 16.24,67.22"/>
    </edge>
    <edge id=":J18_0" function="internal">
        <lane id=":J18_0_0" index="0" speed="13.89" length="0.10" shape="-29.72,-43.75 -29.72,-43.75"/>
    </edge>
    <edge id=":J18_1" function="internal">
        <lane id=":J18_1_0" index="0" speed="3.65" length="2.34" shape="-29.72,-43.75 -28.92,-44.95 -28.12,-45.35"/>
    </edge>
    <edge id=":J18_4" function="internal">
        <lane id=":J18_4_0" index="0" speed="3.65" length="2.34" shape="-28.12,-45.35 -27.32,-44.95 -26.52,-43.75"/>
    </edge>
    <edge id=":J18_2" function="internal">
        <lane id=":J18_2_0" index="0" speed="13.89" length="0.10" shape="-26.52,-43.75 -26.52,-43.75"/>
    </edge>
    <edge id=":J18_3" function="internal">
        <lane id=":J18_3_0" index="0" speed="3.65" length="2.34" shape="-26.52,-43.75 -27.32,-42.55 -28.12,-42.15"/>
    </edge>
    <edge id=":J18_5" function="internal">
        <lane id=":J18_5_0" index="0" speed="3.65" length="2.34" shape="-28.12,-42.15 -28.92,-42.55 -29.72,-43.75"/>
    </edge>
    <edge id=":J19_0" function="internal">
        <lane id=":J19_0_0" index="0" speed="13.89" length="14.40" shape="238.45,51.60 224.05,51.60"/>
    </edge>
    <edge id=":J19_1" function="internal">
        <lane id=":J19_1_0" index="0" speed="8.00" length="4.07" shape="238.45,51.60 234.60,51.05 234.45,50.96"/>
    </edge>
    <edge id=":J19_2" function="internal">
        <lane id=":J19_2_0" index="0" speed="3.65" length="1.44" shape="238.45,51.60 237.25,50.80"/>
    </edge>
    <edge id=":J19_9" function="internal">
        <lane id=":J19_9_0" index="0" speed="8.00" length="10.13" shape="234.45,50.96 231.85,49.40 230.20,46.65 229.65,42.80"/>
    </edge>
    <edge id=":J19_10" function="internal">
        <lane id=":J19_10_0" index="0" speed="3.65" length="3.23" shape="237.25,50.80 236.85,50.00 237.25,49.20 238.45,48.40"/>
    </edge>
    <edge id=":J19_3" function="internal">
        <lane id=":J19_3_0" index="0" speed="6.51" length="9.03" shape="232.85,42.80 233.20,45.25 234.25,47.00 236.00,48.05 238.45,48.40"/>
    </edge>
    <edge id=":J19_4" function="internal">
        <lane id=":J19_4_0" index="0" speed="8.00" length="14.19" shape="232.85,42.80 232.30,46.65 230.65,49.40 227.90,51.05 224.05,51.60"/>
    </edge>
    <edge id=":J19_5" function="internal">
        <lane id=":J19_5_0" index="0" speed="3.65" length="4.67" shape="232.85,42.80 232.05,44.00 231.25,44.40 230.45,44.00 229.65,42.80"/>
    </edge>
    <edge id=":J19_6" function="internal">
        <lane id=":J19_6_0" index="0" speed="6.51" length="9.03" shape="224.05,48.40 226.50,48.05 228.25,47.00 229.30,45.25 229.65,42.80"/>
    </edge>
    <edge id=":J19_7" function="internal">
        <lane id=":J19_7_0" index="0" speed="13.89" length="14.40" shape="224.05,48.40 238.45,48.40"/>
    </edge>
    <edge id=":J19_8" function="internal">
        <lane id=":J19_8_0" index="0" speed="3.65" length="1.44" shape="224.05,48.40 225.25,49.20"/>
    </edge>
    <edge id=":J19_11" function="internal">
        <lane id=":J19_11_0" index="0" speed="3.65" length="3.23" shape="225.25,49.20 225.65,50.00 225.25,50.80 224.05,51.60"/>
    </edge>
    <edge id=":J2_0" function="internal">
        <lane id=":J2_0_0" index="0" speed="6.51" length="9.03" shape="34.34,113.45 33.99,111.00 32.94,109.25 31.19,108.20 28.74,107.85"/>
    </edge>
    <edge id=":J2_1" function="internal">
        <lane id=":J2_1_0" index="0" speed="8.00" length="14.19" shape="34.34,113.45 34.89,109.60 36.54,106.85 39.29,105.20 43.14,104.65"/>
    </edge>
    <edge id=":J2_2" function="internal">
        <lane id=":J2_2_0" index="0" speed="3.65" length="4.67" shape="34.34,113.45 35.14,112.25 35.94,111.85 36.74,112.25 37.54,113.45"/>
    </edge>
    <edge id=":J2_3" function="internal">
        <lane id=":J2_3_0" index="0" speed="6.51" length="9.03" shape="43.14,107.85 40.69,108.20 38.94,109.25 37.89,111.00 37.54,113.45"/>
    </edge>
    <edge id=":J2_4" function="internal">
        <lane id=":J2_4_0" index="0" speed="13.89" length="14.40" shape="43.14,107.85 28.74,107.85"/>
    </edge>
    <edge id=":J2_5" function="internal">
        <lane id=":J2_5_0" index="0" speed="3.65" length="1.44" shape="43.14,107.85 41.94,107.05"/>
    </edge>
    <edge id=":J2_9" function="internal">
        <lane id=":J2_9_0" index="0" speed="3.65" length="3.23" shape="41.94,107.05 41.54,106.25 41.94,105.45 43.14,104.65"/>
    </edge>
    <edge id=":J2_6" function="internal">
        <lane id=":J2_6_0" index="0" speed="13.89" length="14.40" shape="28.74,104.65 43.14,104.65"/>
    </edge>
    <edge id=":J2_7" function="internal">
        <lane id=":J2_7_0" index="0" speed="8.00" length="4.07" shape="28.74,104.65 32.59,105.20 32.74,105.29"/>
    </edge>
    <edge id=":J2_8" function="internal">
        <lane id=":J2_8_0" index="0" speed="3.65" length="1.44" shape="28.74,104.65 29.94,105.45"/>
    </edge>
    <edge id=":J2_10" function="internal">
        <lane id=":J2_10_0" index="0" speed="8.00" length="10.13" shape="32.74,105.29 35.34,106.85 36.99,109.60 37.54,113.45"/>
    </edge>
    <edge id=":J2_11" function="internal">
        <lane id=":J2_11_0" index="0" speed="3.65" length="3.23" shape="29.94,105.45 30.34,106.25 29.94,107.05 28.74,107.85"/>
    </edge>
    <edge id=":J20_0" function="internal">
        <lane id=":J20_0_0" index="0" speed="13.89" length="13.09" shape="208.76,51.60 205.31,51.67 202.22,51.94 199.18,52.46 195.83,53.30"/>
    </edge>
    <edge id=":J20_1" function="internal">
        <lane id=":J20_1_0" index="0" speed="8.00" length="3.89" shape="208.76,51.60 204.91,51.05"/>
    </edge>
    <edge id=":J20_2" function="internal">
        <lane id=":J20_2_0" index="0" speed="3.65" length="1.44" shape="208.76,51.60 207.56,50.80"/>
    </edge>
    <edge id=":J20_9" function="internal">
        <lane id=":J20_9_0" index="0" speed="8.00" length="10.30" shape="204.91,51.05 202.16,49.40 200.51,46.65 199.96,42.80"/>
    </edge>
    <edge id=":J20_10" function="internal">
        <lane id=":J20_10_0" index="0" speed="3.65" length="3.23" shape="207.56,50.80 207.16,50.00 207.56,49.20 208.76,48.40"/>
    </edge>
    <edge id=":J20_3" function="internal">
        <lane id=":J20_3_0" index="0" speed="6.51" length="9.03" shape="203.16,42.80 203.51,45.25 204.56,47.00 206.31,48.05 208.76,48.40"/>
    </edge>
    <edge id=":J20_4" function="internal">
        <lane id=":J20_4_0" index="0" speed="8.85" length="13.87" shape="203.16,42.80 202.70,46.61 201.33,49.63 199.04,51.86 195.83,53.30"/>
    </edge>
    <edge id=":J20_5" function="internal">
        <lane id=":J20_5_0" index="0" speed="3.65" length="4.67" shape="203.16,42.80 202.36,44.00 201.56,44.40 200.76,44.00 199.96,42.80"/>
    </edge>
    <edge id=":J20_6" function="internal">
        <lane id=":J20_6_0" index="0" speed="7.49" length="9.69" shape="194.95,50.22 197.14,49.22 198.71,47.65 199.65,45.51 199.96,42.80"/>
    </edge>
    <edge id=":J20_7" function="internal">
        <lane id=":J20_7_0" index="0" speed="13.89" length="13.97" shape="194.95,50.22 198.44,49.36 201.78,48.80 205.17,48.49 208.76,48.40"/>
    </edge>
    <edge id=":J20_8" function="internal">
        <lane id=":J20_8_0" index="0" speed="3.65" length="1.44" shape="194.95,50.22 196.33,50.66"/>
    </edge>
    <edge id=":J20_11" function="internal">
        <lane id=":J20_11_0" index="0" speed="3.65" length="3.23" shape="196.33,50.66 196.93,51.32 196.77,52.20 195.83,53.30"/>
    </edge>
    <edge id=":J21_0" function="internal">
        <lane id=":J21_0_0" index="0" speed="6.51" length="9.03" shape="199.96,-88.11 199.61,-90.56 198.56,-92.31 196.81,-93.36 194.36,-93.71"/>
    </edge>
    <edge id=":J21_1" function="internal">
        <lane id=":J21_1_0" index="0" speed="8.00" length="14.19" shape="199.96,-88.11 200.51,-91.96 202.16,-94.71 204.91,-96.36 208.76,-96.91"/>
    </edge>
    <edge id=":J21_2" function="internal">
        <lane id=":J21_2_0" index="0" speed="3.65" length="4.67" shape="199.96,-88.11 200.76,-89.31 201.56,-89.71 202.36,-89.31 203.16,-88.11"/>
    </edge>
    <edge id=":J21_3" function="internal">
        <lane id=":J21_3_0" index="0" speed="6.51" length="9.03" shape="208.76,-93.71 206.31,-93.36 204.56,-92.31 203.51,-90.56 203.16,-88.11"/>
    </edge>
    <edge id=":J21_4" function="internal">
        <lane id=":J21_4_0" index="0" speed="13.89" length="14.40" shape="208.76,-93.71 194.36,-93.71"/>
    </edge>
    <edge id=":J21_5" function="internal">
        <lane id=":J21_5_0" index="0" speed="3.65" length="1.44" shape="208.76,-93.71 207.56,-94.51"/>
    </edge>
    <edge id=":J21_9" function="internal">
        <lane id=":J21_9_0" index="0" speed="3.65" length="3.23" shape="207.56,-94.51 207.16,-95.31 207.56,-96.11 208.76,-96.91"/>
    </edge>
    <edge id=":J21_6" function="internal">
        <lane id=":J21_6_0" index="0" speed="13.89" length="14.40" shape="194.36,-96.91 208.76,-96.91"/>
    </edge>
    <edge id=":J21_7" function="internal">
        <lane id=":J21_7_0" index="0" speed="8.00" length="4.07" shape="194.36,-96.91 198.21,-96.36 198.36,-96.27"/>
    </edge>
    <edge id=":J21_8" function="internal">
        <lane id=":J21_8_0" index="0" speed="3.65" length="1.44" shape="194.36,-96.91 195.56,-96.11"/>
    </edge>
    <edge id=":J21_10" function="internal">
        <lane id=":J21_10_0" index="0" speed="8.00" length="10.13" shape="198.36,-96.27 200.96,-94.71 202.61,-91.96 203.16,-88.11"/>
    </edge>
    <edge id=":J21_11" function="internal">
        <lane id=":J21_11_0" index="0" speed="3.65" length="3.23" shape="195.56,-96.11 195.96,-95.31 195.56,-94.51 194.36,-93.71"/>
    </edge>
    <edge id=":J22_0" function="internal">
        <lane id=":J22_0_0" index="0" speed="6.51" length="9.03" shape="229.65,-88.11 229.30,-90.56 228.25,-92.31 226.50,-93.36 224.05,-93.71"/>
    </edge>
    <edge id=":J22_1" function="internal">
        <lane id=":J22_1_0" index="0" speed="8.00" length="14.19" shape="229.65,-88.11 230.20,-91.96 231.85,-94.71 234.60,-96.36 238.45,-96.91"/>
    </edge>
    <edge id=":J22_2" function="internal">
        <lane id=":J22_2_0" index="0" speed="3.65" length="4.67" shape="229.65,-88.11 230.45,-89.31 231.25,-89.71 232.05,-89.31 232.85,-88.11"/>
    </edge>
    <edge id=":J22_3" function="internal">
        <lane id=":J22_3_0" index="0" speed="6.51" length="9.03" shape="238.45,-93.71 236.00,-93.36 234.25,-92.31 233.20,-90.56 232.85,-88.11"/>
    </edge>
    <edge id=":J22_4" function="internal">
        <lane id=":J22_4_0" index="0" speed="13.89" length="14.40" shape="238.45,-93.71 224.05,-93.71"/>
    </edge>