<?xml version="1.0" encoding="UTF-8"?>

<!-- generated on 2023-06-07 18:20:45 by Eclipse SUMO netedit Version 1.16.0
<configuration xmlns:xsi="http://www.w3.org/2001/XMLSchema-instance" xsi:noNamespaceSchemaLocation="http://sumo.dlr.de/xsd/netconvertConfiguration.xsd">

    <input>
        <sumo-net-file value="/home/agrojas/Documents/vishwajeet/ddp_workspace/src/mrpp_iot/graph_sumo/pipeline1.net.xml"/>
    </input>

    <processing>
        <geometry.min-radius.fix.railways value="false"/>
        <geometry.max-grade.fix value="false"/>
        <offset.disable-normalization value="true"/>
        <lefthand value="0"/>
    </processing>

    <junctions>
        <no-turnarounds value="true"/>
        <junctions.corner-detail value="5"/>
        <junctions.limit-turn-speed value="5.50"/>
        <rectangular-lane-cut value="0"/>
    </junctions>

    <pedestrian>
        <walkingareas value="0"/>
    </pedestrian>

</configuration>
-->

<connections version="1.16" xmlns:xsi="http://www.w3.org/2001/XMLSchema-instance" xsi:noNamespaceSchemaLocation="http://sumo.dlr.de/xsd/connections_file.xsd">
    <connection from="-E104" to="-E168" fromLane="0" toLane="0"/>

    <connection from="-E105" to="-E104" fromLane="0" toLane="0"/>

    <connection from="-E106" to="-E105" fromLane="0" toLane="0"/>

    <connection from="-E107" to="-E106" fromLane="0" toLane="0"/>

    <connection from="-E108" to="E137" fromLane="0" toLane="0"/>
    <connection from="-E108" to="-E107" fromLane="0" toLane="0"/>

    <connection from="-E109" to="E110" fromLane="0" toLane="0"/>
    <connection from="-E109" to="-E108" fromLane="0" toLane="0"/>

    <connection from="-E110" to="-E108" fromLane="0" toLane="0"/>
    <connection from="-E110" to="E109" fromLane="0" toLane="0"/>

    <connection from="-E111" to="-E110" fromLane="0" toLane="0"/>
    <connection from="-E111" to="E117" fromLane="0" toLane="0"/>

    <connection from="-E112" to="E114" fromLane="0" toLane="0"/>
    <connection from="-E112" to="E113" fromLane="0" toLane="0"/>
    <connection from="-E112" to="-E111" fromLane="0" toLane="0"/>

    <connection from="-E113" to="-E111" fromLane="0" toLane="0"/>
    <connection from="-E113" to="E112" fromLane="0" toLane="0"/>
    <connection from="-E113" to="E114" fromLane="0" toLane="0"/>

    <connection from="-E114" to="E113" fromLane="0" toLane="0"/>
    <connection from="-E114" to="-E111" fromLane="0" toLane="0"/>
    <connection from="-E114" to="E112" fromLane="0" toLane="0"/>

    <connection from="-E115" to="E116" fromLane="0" toLane="0"/>
    <connection from="-E115" to="-E114" fromLane="0" toLane="0"/>

    <connection from="-E116" to="-E114" fromLane="0" toLane="0"/>
    <connection from="-E116" to="E115" fromLane="0" toLane="0"/>

    <connection from="-E117" to="E111" fromLane="0" toLane="0"/>
    <connection from="-E117" to="-E110" fromLane="0" toLane="0"/>

    <connection from="-E118" to="-E117" fromLane="0" toLane="0"/>
    <connection from="-E118" to="E119" fromLane="0" toLane="0"/>

    <connection from="-E119" to="E118" fromLane="0" toLane="0"/>
    <connection from="-E119" to="-E117" fromLane="0" toLane="0"/>

    <connection from="-E120" to="E121" fromLane="0" toLane="0"/>
    <connection from="-E120" to="-E119" fromLane="0" toLane="0"/>

    <connection from="-E121" to="-E119" fromLane="0" toLane="0"/>
    <connection from="-E121" to="E120" fromLane="0" toLane="0"/>

    <connection from="-E122" to="-E121" fromLane="0" toLane="0"/>
    <connection from="-E122" to="E123" fromLane="0" toLane="0"/>

    <connection from="-E123" to="E122" fromLane="0" toLane="0"/>
    <connection from="-E123" to="-E121" fromLane="0" toLane="0"/>

    <connection from="-E124" to="-E123" fromLane="0" toLane="0"/>
    <connection from="-E124" to="E125" fromLane="0" toLane="0"/>

    <connection from="-E125" to="E124" fromLane="0" toLane="0"/>
    <connection from="-E125" to="-E123" fromLane="0" toLane="0"/>

    <connection from="-E126" to="-E125" fromLane="0" toLane="0"/>
    <connection from="-E126" to="E127" fromLane="0" toLane="0"/>

    <connection from="-E127" to="E126" fromLane="0" toLane="0"/>
    <connection from="-E127" to="-E125" fromLane="0" toLane="0"/>

    <connection from="-E128" to="E138" fromLane="0" toLane="0"/>
    <connection from="-E128" to="E139" fromLane="0" toLane="0"/>

    <connection from="-E129" to="E179" fromLane="0" toLane="0"/>
    <connection from="-E129" to="-E128" fromLane="0" toLane="0"/>

    <connection from="-E131" to="E132" fromLane="0" toLane="0"/>
    <connection from="-E131" to="-E183" fromLane="0" toLane="0"/>

    <connection from="-E132" to="-E183" fromLane="0" toLane="0"/>
    <connection from="-E132" to="E131" fromLane="0" toLane="0"/>

    <connection from="-E133" to="E134" fromLane="0" toLane="0"/>
    <connection from="-E133" to="-E132" fromLane="0" toLane="0"/>

    <connection from="-E134" to="-E132" fromLane="0" toLane="0"/>
    <connection from="-E134" to="E133" fromLane="0" toLane="0"/>

    <connection from="-E135" to="E184" fromLane="0" toLane="0"/>
    <connection from="-E135" to="-E134" fromLane="0" toLane="0"/>

    <connection from="-E136" to="E188" fromLane="0" toLane="0"/>
    <connection from="-E136" to="-E135" fromLane="0" toLane="0"/>
    <connection from="-E136" to="E165" fromLane="0" toLane="0"/>

    <connection from="-E137" to="-E107" fromLane="0" toLane="0"/>
    <connection from="-E137" to="E108" fromLane="0" toLane="0"/>

    <connection from="-E138" to="E139" fromLane="0" toLane="0"/>
    <connection from="-E138" to="E128" fromLane="0" toLane="0"/>

    <connection from="-E139" to="E128" fromLane="0" toLane="0"/>
    <connection from="-E139" to="E138" fromLane="0" toLane="0"/>

    <connection from="-E140" to="-E139" fromLane="0" toLane="0"/>

    <connection from="-E141" to="-E140" fromLane="0" toLane="0"/>

    <connection from="-E142" to="-E141" fromLane="0" toLane="0"/>

    <connection from="-E144" to="E164" fromLane="0" toLane="0"/>

    <connection from="-E145" to="E163" fromLane="0" toLane="0"/>
    <connection from="-E145" to="-E144" fromLane="0" toLane="0"/>

    <connection from="-E146" to="-E145" fromLane="0" toLane="0"/>
    <connection from="-E146" to="E171" fromLane="0" toLane="0"/>

    <connection from="-E147" to="-E146" fromLane="0" toLane="0"/>
    <connection from="-E147" to="E159" fromLane="0" toLane="0"/>

    <connection from="-E148" to="-E147" fromLane="0" toLane="0"/>
    <connection from="-E148" to="E158" fromLane="0" toLane="0"/>

    <connection from="-E149" to="-E148" fromLane="0" toLane="0"/>
    <connection from="-E149" to="E157" fromLane="0" toLane="0"/>

    <connection from="-E150" to="-E149" fromLane="0" toLane="0"/>

    <connection from="-E151" to="-E109" fromLane="0" toLane="0"/>
    <connection from="-E151" to="E154" fromLane="0" toLane="0"/>

    <connection from="-E152" to="-E151" fromLane="0" toLane="0"/>

    <connection from="-E153" to="-E152" fromLane="0" toLane="0"/>

    <connection from="-E154" to="E151" fromLane="0" toLane="0"/>
    <connection from="-E154" to="-E109" fromLane="0" toLane="0"/>

    <connection from="-E155" to="-E129" fromLane="0" toLane="0"/>
    <connection from="-E155" to="E156" fromLane="0" toLane="0"/>
    <connection from="-E155" to="E177" fromLane="0" toLane="0"/>

    <connection from="-E156" to="E177" fromLane="0" toLane="0"/>
    <connection from="-E156" to="E155" fromLane="0" toLane="0"/>
    <connection from="-E156" to="-E129" fromLane="0" toLane="0"/>

    <connection from="-E157" to="E149" fromLane="0" toLane="0"/>
    <connection from="-E157" to="-E148" fromLane="0" toLane="0"/>

    <connection from="-E158" to="E148" fromLane="0" toLane="0"/>
    <connection from="-E158" to="-E147" fromLane="0" toLane="0"/>

    <connection from="-E159" to="E147" fromLane="0" toLane="0"/>
    <connection from="-E159" to="-E146" fromLane="0" toLane="0"/>

    <connection from="-E160" to="-E159" fromLane="0" toLane="0"/>

    <connection from="-E161" to="-E160" fromLane="0" toLane="0"/>
    <connection from="-E161" to="E174" fromLane="0" toLane="0"/>
    <connection from="-E161" to="E172" fromLane="0" toLane="0"/>

    <connection from="-E162" to="E185" fromLane="0" toLane="0"/>
    <connection from="-E162" to="E176" fromLane="0" toLane="0"/>
    <connection from="-E162" to="-E158" fromLane="0" toLane="0"/>

    <connection from="-E163" to="-E144" fromLane="0" toLane="0"/>
    <connection from="-E163" to="E145" fromLane="0" toLane="0"/>

    <connection from="-E164" to="E144" fromLane="0" toLane="0"/>

    <connection from="-E165" to="E136" fromLane="0" toLane="0"/>
    <connection from="-E165" to="E188" fromLane="0" toLane="0"/>
    <connection from="-E165" to="-E135" fromLane="0" toLane="0"/>

    <connection from="-E166" to="-E165" fromLane="0" toLane="0"/>

    <connection from="-E167" to="-E150" fromLane="0" toLane="0"/>

    <connection from="-E168" to="-E167" fromLane="0" toLane="0"/>
    <connection from="-E168" to="-E142" fromLane="0" toLane="0"/>

    <connection from="-E169" to="-E170" fromLane="0" toLane="0"/>
    <connection from="-E169" to="-E136" fromLane="0" toLane="0"/>

    <connection from="-E170" to="-E127" fromLane="0" toLane="0"/>

    <connection from="-E171" to="E146" fromLane="0" toLane="0"/>
    <connection from="-E171" to="-E145" fromLane="0" toLane="0"/>

    <connection from="-E172" to="E161" fromLane="0" toLane="0"/>
    <connection from="-E172" to="-E160" fromLane="0" toLane="0"/>
    <connection from="-E172" to="E174" fromLane="0" toLane="0"/>

    <connection from="-E173" to="-E172" fromLane="0" toLane="0"/>
    <connection from="-E173" to="E175" fromLane="0" toLane="0"/>

    <connection from="-E174" to="E172" fromLane="0" toLane="0"/>
    <connection from="-E174" to="E161" fromLane="0" toLane="0"/>
    <connection from="-E174" to="-E160" fromLane="0" toLane="0"/>

    <connection from="-E175" to="E173" fromLane="0" toLane="0"/>
    <connection from="-E175" to="-E172" fromLane="0" toLane="0"/>

    <connection from="-E176" to="-E158" fromLane="0" toLane="0"/>
    <connection from="-E176" to="E162" fromLane="0" toLane="0"/>
    <connection from="-E176" to="E185" fromLane="0" toLane="0"/>

    <connection from="-E177" to="E155" fromLane="0" toLane="0"/>
    <connection from="-E177" to="-E129" fromLane="0" toLane="0"/>
    <connection from="-E177" to="E156" fromLane="0" toLane="0"/>

    <connection from="-E178" to="-E177" fromLane="0" toLane="0"/>

    <connection from="-E179" to="-E128" fromLane="0" toLane="0"/>
    <connection from="-E179" to="E129" fromLane="0" toLane="0"/>

    <connection from="-E180" to="E181" fromLane="0" toLane="0"/>
    <connection from="-E180" to="-E179" fromLane="0" toLane="0"/>

    <connection from="-E181" to="-E179" fromLane="0" toLane="0"/>
    <connection from="-E181" to="E180" fromLane="0" toLane="0"/>

    <connection from="-E182" to="E183" fromLane="0" toLane="0"/>
    <connection from="-E182" to="-E181" fromLane="0" toLane="0"/>

    <connection from="-E183" to="-E181" fromLane="0" toLane="0"/>
    <connection from="-E183" to="E182" fromLane="0" toLane="0"/>

    <connection from="-E184" to="-E134" fromLane="0" toLane="0"/>
    <connection from="-E184" to="E135" fromLane="0" toLane="0"/>

    <connection from="-E185" to="E176" fromLane="0" toLane="0"/>
    <connection from="-E185" to="-E158" fromLane="0" toLane="0"/>
    <connection from="-E185" to="E162" fromLane="0" toLane="0"/>

    <connection from="-E186" to="-E185" fromLane="0" toLane="0"/>
    <connection from="-E186" to="E187" fromLane="0" toLane="0"/>

    <connection from="-E187" to="E186" fromLane="0" toLane="0"/>
    <connection from="-E187" to="-E185" fromLane="0" toLane="0"/>

    <connection from="-E188" to="-E135" fromLane="0" toLane="0"/>
    <connection from="-E188" to="E165" fromLane="0" toLane="0"/>
    <connection from="-E188" to="E136" fromLane="0" toLane="0"/>

    <connection from="-E189" to="-E126" fromLane="0" toLane="0"/>

    <connection from="-E190" to="-E124" fromLane="0" toLane="0"/>

    <connection from="-E191" to="-E187" fromLane="0" toLane="0"/>

    <connection from="-E192" to="-E182" fromLane="0" toLane="0"/>

    <connection from="-E193" to="-E131" fromLane="0" toLane="0"/>
    <connection from="-E193" to="-E192" fromLane="0" toLane="0"/>

    <connection from="-E194" to="-E137" fromLane="0" toLane="0"/>

    <connection from="-E195"/>

    <connection from="-E196" to="-E195" fromLane="0" toLane="0"/>

    <connection from="-E197" to="-E196" fromLane="0" toLane="0"/>

    <connection from="-E198" to="-E197" fromLane="0" toLane="0"/>

    <connection from="-E199" to="-E157" fromLane="0" toLane="0"/>

    <connection from="-E200" to="-E199" fromLane="0" toLane="0"/>

    <connection from="-E201" to="-E178" fromLane="0" toLane="0"/>
    <connection from="-E201" to="E202" fromLane="0" toLane="0"/>

    <connection from="-E202" to="E201" fromLane="0" toLane="0"/>
    <connection from="-E202" to="-E178" fromLane="0" toLane="0"/>

    <connection from="-E203" to="-E161" fromLane="0" toLane="0"/>

    <connection from="-E204" to="-E203" fromLane="0" toLane="0"/>

    <connection from="-E205" to="-E204" fromLane="0" toLane="0"/>

    <connection from="-E206" to="-E201" fromLane="0" toLane="0"/>

    <connection from="-E207" to="-E206" fromLane="0" toLane="0"/>

    <connection from="-E208" to="-E207" fromLane="0" toLane="0"/>

    <connection from="E104" to="E105" fromLane="0" toLane="0"/>

    <connection from="E105" to="E106" fromLane="0" toLane="0"/>

    <connection from="E106" to="E107" fromLane="0" toLane="0"/>

    <connection from="E107" to="E108" fromLane="0" toLane="0"/>
    <connection from="E107" to="E137" fromLane="0" toLane="0"/>

    <connection from="E108" to="E109" fromLane="0" toLane="0"/>
    <connection from="E108" to="E110" fromLane="0" toLane="0"/>

    <connection from="E109" to="E154" fromLane="0" toLane="0"/>
    <connection from="E109" to="E151" fromLane="0" toLane="0"/>

    <connection from="E110" to="E117" fromLane="0" toLane="0"/>
    <connection from="E110" to="E111" fromLane="0" toLane="0"/>

    <connection from="E111" to="E112" fromLane="0" toLane="0"/>
    <connection from="E111" to="E114" fromLane="0" toLane="0"/>
    <connection from="E111" to="E113" fromLane="0" toLane="0"/>

    <connection from="E112"/>

    <connection from="E113"/>

    <connection from="E114" to="E115" fromLane="0" toLane="0"/>
    <connection from="E114" to="E116" fromLane="0" toLane="0"/>

    <connection from="E115"/>

    <connection from="E116"/>

    <connection from="E117" to="E119" fromLane="0" toLane="0"/>
    <connection from="E117" to="E118" fromLane="0" toLane="0"/>

    <connection from="E118" to="-E191" fromLane="0" toLane="0"/>

    <connection from="E119" to="E120" fromLane="0" toLane="0"/>
    <connection from="E119" to="E121" fromLane="0" toLane="0"/>

    <connection from="E120" to="-E193" fromLane="0" toLane="0"/>

    <connection from="E121" to="E123" fromLane="0" toLane="0"/>
    <connection from="E121" to="E122" fromLane="0" toLane="0"/>

    <connection from="E122"/>

    <connection from="E123" to="E125" fromLane="0" toLane="0"/>
    <connection from="E123" to="E124" fromLane="0" toLane="0"/>

    <connection from="E124" to="E190" fromLane="0" toLane="0"/>

    <connection from="E125" to="E127" fromLane="0" toLane="0"/>
    <connection from="E125" to="E126" fromLane="0" toLane="0"/>

    <connection from="E126" to="E189" fromLane="0" toLane="0"/>

    <connection from="E127" to="E170" fromLane="0" toLane="0"/>

    <connection from="E128" to="E129" fromLane="0" toLane="0"/>
    <connection from="E128" to="E179" fromLane="0" toLane="0"/>

    <connection from="E129" to="E156" fromLane="0" toLane="0"/>
    <connection from="E129" to="E177" fromLane="0" toLane="0"/>
    <connection from="E129" to="E155" fromLane="0" toLane="0"/>

    <connection from="E131" to="-E192" fromLane="0" toLane="0"/>
    <connection from="E131" to="E193" fromLane="0" toLane="0"/>

    <connection from="E132" to="E133" fromLane="0" toLane="0"/>
    <connection from="E132" to="E134" fromLane="0" toLane="0"/>

    <connection from="E133"/>

    <connection from="E134" to="E135" fromLane="0" toLane="0"/>
    <connection from="E134" to="E184" fromLane="0" toLane="0"/>

    <connection from="E135" to="E165" fromLane="0" toLane="0"/>
    <connection from="E135" to="E136" fromLane="0" toLane="0"/>
    <connection from="E135" to="E188" fromLane="0" toLane="0"/>

    <connection from="E136" to="E169" fromLane="0" toLane="0"/>
    <connection from="E136" to="-E170" fromLane="0" toLane="0"/>

    <connection from="E137" to="E194" fromLane="0" toLane="0"/>

    <connection from="E138" to="-E194" fromLane="0" toLane="0"/>

    <connection from="E139" to="E140" fromLane="0" toLane="0"/>

    <connection from="E140" to="E141" fromLane="0" toLane="0"/>

    <connection from="E141" to="E142" fromLane="0" toLane="0"/>

    <connection from="E142" to="E168" fromLane="0" toLane="0"/>
    <connection from="E142" to="-E167" fromLane="0" toLane="0"/>

    <connection from="E144" to="E145" fromLane="0" toLane="0"/>
    <connection from="E144" to="E163" fromLane="0" toLane="0"/>

    <connection from="E145" to="E171" fromLane="0" toLane="0"/>
    <connection from="E145" to="E146" fromLane="0" toLane="0"/>

    <connection from="E146" to="E159" fromLane="0" toLane="0"/>
    <connection from="E146" to="E147" fromLane="0" toLane="0"/>

    <connection from="E147" to="E158" fromLane="0" toLane="0"/>
    <connection from="E147" to="E148" fromLane="0" toLane="0"/>

    <connection from="E148" to="E157" fromLane="0" toLane="0"/>
    <connection from="E148" to="E149" fromLane="0" toLane="0"/>

    <connection from="E149" to="E150" fromLane="0" toLane="0"/>

    <connection from="E150" to="E167" fromLane="0" toLane="0"/>

    <connection from="E151" to="E152" fromLane="0" toLane="0"/>

    <connection from="E152" to="E153" fromLane="0" toLane="0"/>

    <connection from="E153"/>

    <connection from="E154"/>

    <connection from="E155"/>

    <connection from="E156"/>

    <connection from="E157" to="E199" fromLane="0" toLane="0"/>

    <connection from="E158" to="E162" fromLane="0" toLane="0"/>
    <connection from="E158" to="E185" fromLane="0" toLane="0"/>
    <connection from="E158" to="E176" fromLane="0" toLane="0"/>

    <connection from="E159" to="E160" fromLane="0" toLane="0"/>

    <connection from="E160" to="E174" fromLane="0" toLane="0"/>
    <connection from="E160" to="E172" fromLane="0" toLane="0"/>
    <connection from="E160" to="E161" fromLane="0" toLane="0"/>

    <connection from="E161" to="E203" fromLane="0" toLane="0"/>

    <connection from="E162"/>

    <connection from="E163" to="-E169" fromLane="0" toLane="0"/>

    <connection from="E164"/>

    <connection from="E165" to="E166" fromLane="0" toLane="0"/>

    <connection from="E166"/>

    <connection from="E167" to="-E142" fromLane="0" toLane="0"/>
    <connection from="E167" to="E168" fromLane="0" toLane="0"/>

    <connection from="E168" to="E104" fromLane="0" toLane="0"/>

    <connection from="E169" to="-E163" fromLane="0" toLane="0"/>

    <connection from="E170" to="-E136" fromLane="0" toLane="0"/>
    <connection from="E170" to="E169" fromLane="0" toLane="0"/>

    <connection from="E171" to="-E198" fromLane="0" toLane="0"/>

    <connection from="E172" to="E175" fromLane="0" toLane="0"/>
    <connection from="E172" to="E173" fromLane="0" toLane="0"/>

    <connection from="E173"/>

    <connection from="E174"/>

    <connection from="E175"/>

    <connection from="E176"/>

    <connection from="E177" to="E178" fromLane="0" toLane="0"/>

    <connection from="E178" to="E202" fromLane="0" toLane="0"/>
    <connection from="E178" to="E201" fromLane="0" toLane="0"/>

    <connection from="E179" to="E180" fromLane="0" toLane="0"/>
    <connection from="E179" to="E181" fromLane="0" toLane="0"/>

    <connection from="E180"/>

    <connection from="E181" to="E182" fromLane="0" toLane="0"/>
    <connection from="E181" to="E183" fromLane="0" toLane="0"/>

    <connection from="E182" to="E192" fromLane="0" toLane="0"/>

    <connection from="E183" to="E131" fromLane="0" toLane="0"/>
    <connection from="E183" to="E132" fromLane="0" toLane="0"/>

    <connection from="E184" to="-E190" fromLane="0" toLane="0"/>

    <connection from="E185" to="E187" fromLane="0" toLane="0"/>
    <connection from="E185" to="E186" fromLane="0" toLane="0"/>

    <connection from="E186"/>

    <connection from="E187" to="E191" fromLane="0" toLane="0"/>

    <connection from="E188" to="-E189" fromLane="0" toLane="0"/>

    <connection from="E189" to="-E188" fromLane="0" toLane="0"/>

    <connection from="E190" to="-E184" fromLane="0" toLane="0"/>

    <connection from="E191" to="-E118" fromLane="0" toLane="0"/>

    <connection from="E192" to="E193" fromLane="0" toLane="0"/>
    <connection from="E192" to="-E131" fromLane="0" toLane="0"/>

    <connection from="E193" to="-E120" fromLane="0" toLane="0"/>

    <connection from="E194" to="-E138" fromLane="0" toLane="0"/>

    <connection from="E195" to="E196" fromLane="0" toLane="0"/>

    <connection from="E196" to="E197" fromLane="0" toLane="0"/>

    <connection from="E197" to="E198" fromLane="0" toLane="0"/>

    <connection from="E198" to="-E171" fromLane="0" toLane="0"/>

    <connection from="E199" to="E200" fromLane="0" toLane="0"/>

    <connection from="E200"/>

    <connection from="E201" to="E206" fromLane="0" toLane="0"/>

    <connection from="E202"/>

    <connection from="E203" to="E204" fromLane="0" toLane="0"/>

    <connection from="E204" to="E205" fromLane="0" toLane="0"/>

    <connection from="E205"/>

    <connection from="E206" to="E207" fromLane="0" toLane="0"/>

    <connection from="E207" to="E208" fromLane="0" toLane="0"/>

    <connection from="E208"/>

</connections>
