<?xml version="1.0" encoding="UTF-8"?>

<!-- generated on 2023-06-26 20:42:35 by Eclipse SUMO netedit Version 1.17.0
<configuration xmlns:xsi="http://www.w3.org/2001/XMLSchema-instance" xsi:noNamespaceSchemaLocation="http://sumo.dlr.de/xsd/netconvertConfiguration.xsd">

    <input>
        <sumocfg-file value="/home/vishwajeet/ddp_workspace/src/mrpp_sumo/graph_sumo/pipeline3.sumocfg"/>
        <sumo-net-file value="/home/vishwajeet/ddp_workspace/src/mrpp_sumo/graph_sumo/pipeline3.net.xml"/>
    </input>

    <output>
        <output-file value="/home/vishwajeet/ddp_workspace/src/mrpp_sumo/graph_sumo/pipeline3.net.xml"/>
    </output>

    <processing>
        <geometry.min-radius.fix.railways value="false"/>
        <geometry.max-grade.fix value="false"/>
        <offset.disable-normalization value="true"/>
        <lefthand value="0"/>
    </processing>

    <junctions>
        <no-turnarounds value="true"/>
        <junctions.corner-detail value="5"/>
        <junctions.limit-turn-speed value="5.50"/>
        <rectangular-lane-cut value="0"/>
    </junctions>

    <pedestrian>
        <walkingareas value="0"/>
    </pedestrian>

</configuration>
-->

<net version="1.16" junctionCornerDetail="5" limitTurnSpeed="5.50" xmlns:xsi="http://www.w3.org/2001/XMLSchema-instance" xsi:noNamespaceSchemaLocation="http://sumo.dlr.de/xsd/net_file.xsd">

    <location netOffset="0.00,0.00" convBoundary="-3.12,-271.88,578.12,225.00" origBoundary="-10000000000.00,-10000000000.00,10000000000.00,10000000000.00" projParameter="!"/>

    <edge id=":J0_0" function="internal">
        <lane id=":J0_0_0" index="0" speed="3.65" length="4.67" shape="-3.12,64.10 -4.32,63.30 -4.72,62.50 -4.32,61.70 -3.12,60.90"/>
    </edge>
    <edge id=":J1_0" function="internal">
        <lane id=":J1_0_0" index="0" speed="6.51" length="9.03" shape="95.28,69.70 94.93,67.25 93.88,65.50 92.13,64.45 89.68,64.10"/>
    </edge>
    <edge id=":J1_1" function="internal">
        <lane id=":J1_1_0" index="0" speed="8.00" length="14.19" shape="95.28,69.70 95.83,65.85 97.48,63.10 100.23,61.45 104.08,60.90"/>
    </edge>
    <edge id=":J1_2" function="internal">
        <lane id=":J1_2_0" index="0" speed="3.65" length="4.67" shape="95.28,69.70 96.08,68.50 96.88,68.10 97.68,68.50 98.48,69.70"/>
    </edge>
    <edge id=":J1_3" function="internal">
        <lane id=":J1_3_0" index="0" speed="6.51" length="9.03" shape="104.08,64.10 101.63,64.45 99.88,65.50 98.83,67.25 98.48,69.70"/>
    </edge>
    <edge id=":J1_4" function="internal">
        <lane id=":J1_4_0" index="0" speed="13.89" length="14.40" shape="104.08,64.10 89.68,64.10"/>
    </edge>
    <edge id=":J1_5" function="internal">
        <lane id=":J1_5_0" index="0" speed="3.65" length="1.44" shape="104.08,64.10 102.88,63.30"/>
    </edge>
    <edge id=":J1_9" function="internal">
        <lane id=":J1_9_0" index="0" speed="3.65" length="3.23" shape="102.88,63.30 102.48,62.50 102.88,61.70 104.08,60.90"/>
    </edge>
    <edge id=":J1_6" function="internal">
        <lane id=":J1_6_0" index="0" speed="13.89" length="14.40" shape="89.68,60.90 104.08,60.90"/>
    </edge>
    <edge id=":J1_7" function="internal">
        <lane id=":J1_7_0" index="0" speed="8.00" length="4.07" shape="89.68,60.90 93.53,61.45 93.68,61.54"/>
    </edge>
    <edge id=":J1_8" function="internal">
        <lane id=":J1_8_0" index="0" speed="3.65" length="1.44" shape="89.68,60.90 90.88,61.70"/>
    </edge>
    <edge id=":J1_10" function="internal">
        <lane id=":J1_10_0" index="0" speed="8.00" length="10.13" shape="93.68,61.54 96.28,63.10 97.93,65.85 98.48,69.70"/>
    </edge>
    <edge id=":J1_11" function="internal">
        <lane id=":J1_11_0" index="0" speed="3.65" length="3.23" shape="90.88,61.70 91.28,62.50 90.88,63.30 89.68,64.10"/>
    </edge>
    <edge id=":J10_0" function="internal">
        <lane id=":J10_0_0" index="0" speed="6.08" length="7.74" shape="187.58,85.98 185.48,85.68 183.98,84.78 183.08,83.28 182.78,81.18"/>
    </edge>
    <edge id=":J10_1" function="internal">
        <lane id=":J10_1_0" index="0" speed="3.65" length="1.44" shape="187.58,85.98 186.38,85.18"/>
    </edge>
    <edge id=":J10_4" function="internal">
        <lane id=":J10_4_0" index="0" speed="3.65" length="3.23" shape="186.38,85.18 185.98,84.38 186.38,83.58 187.58,82.78"/>
    </edge>
    <edge id=":J10_2" function="internal">
        <lane id=":J10_2_0" index="0" speed="3.90" length="2.58" shape="185.98,81.18 186.08,81.88 186.38,82.38 186.88,82.68 187.58,82.78"/>
    </edge>
    <edge id=":J10_3" function="internal">
        <lane id=":J10_3_0" index="0" speed="3.65" length="1.30" shape="185.98,81.18 185.26,82.26"/>
    </edge>
    <edge id=":J10_5" function="internal">
        <lane id=":J10_5_0" index="0" speed="3.65" length="3.37" shape="185.26,82.26 185.18,82.38 184.38,82.78 183.58,82.38 182.78,81.18"/>
    </edge>
    <edge id=":J11_0" function="internal">
        <lane id=":J11_0_0" index="0" speed="6.51" length="9.03" shape="285.90,91.58 285.55,89.13 284.50,87.38 282.75,86.33 280.30,85.98"/>
    </edge>
    <edge id=":J11_1" function="internal">
        <lane id=":J11_1_0" index="0" speed="13.89" length="14.40" shape="285.90,91.58 285.90,77.18"/>
    </edge>
    <edge id=":J11_2" function="internal">
        <lane id=":J11_2_0" index="0" speed="8.00" length="4.07" shape="285.90,91.58 286.45,87.73 286.54,87.58"/>
    </edge>
    <edge id=":J11_3" function="internal">
        <lane id=":J11_3_0" index="0" speed="3.65" length="1.44" shape="285.90,91.58 286.70,90.38"/>
    </edge>
    <edge id=":J11_16" function="internal">
        <lane id=":J11_16_0" index="0" speed="8.00" length="10.13" shape="286.54,87.58 288.10,84.98 290.85,83.33 294.70,82.78"/>
    </edge>
    <edge id=":J11_17" function="internal">
        <lane id=":J11_17_0" index="0" speed="3.65" length="3.23" shape="286.70,90.38 287.50,89.98 288.30,90.38 289.10,91.58"/>
    </edge>
    <edge id=":J11_4" function="internal">
        <lane id=":J11_4_0" index="0" speed="6.51" length="9.03" shape="294.70,85.98 292.25,86.33 290.50,87.38 289.45,89.13 289.10,91.58"/>
    </edge>
    <edge id=":J11_5" function="internal">
        <lane id=":J11_5_0" index="0" speed="13.89" length="14.40" shape="294.70,85.98 280.30,85.98"/>
    </edge>
    <edge id=":J11_6" function="internal">
        <lane id=":J11_6_0" index="0" speed="8.00" length="14.19" shape="294.70,85.98 290.85,85.43 288.10,83.78 286.45,81.03 285.90,77.18"/>
    </edge>
    <edge id=":J11_7" function="internal">
        <lane id=":J11_7_0" index="0" speed="3.65" length="4.67" shape="294.70,85.98 293.50,85.18 293.10,84.38 293.50,83.58 294.70,82.78"/>
    </edge>
    <edge id=":J11_8" function="internal">
        <lane id=":J11_8_0" index="0" speed="6.51" length="9.03" shape="289.10,77.18 289.45,79.63 290.50,81.38 292.25,82.43 294.70,82.78"/>
    </edge>
    <edge id=":J11_9" function="internal">
        <lane id=":J11_9_0" index="0" speed="13.89" length="14.40" shape="289.10,77.18 289.10,91.58"/>
    </edge>
    <edge id=":J11_10" function="internal">
        <lane id=":J11_10_0" index="0" speed="8.00" length="4.07" shape="289.10,77.18 288.55,81.03 288.46,81.18"/>
    </edge>
    <edge id=":J11_11" function="internal">
        <lane id=":J11_11_0" index="0" speed="3.65" length="1.44" shape="289.10,77.18 288.30,78.38"/>
    </edge>
    <edge id=":J11_18" function="internal">
        <lane id=":J11_18_0" index="0" speed="8.00" length="10.13" shape="288.46,81.18 286.90,83.78 284.15,85.43 280.30,85.98"/>
    </edge>
    <edge id=":J11_19" function="internal">
        <lane id=":J11_19_0" index="0" speed="3.65" length="3.23" shape="288.30,78.38 287.50,78.78 286.70,78.38 285.90,77.18"/>
    </edge>
    <edge id=":J11_12" function="internal">
        <lane id=":J11_12_0" index="0" speed="6.51" length="9.03" shape="280.30,82.78 282.75,82.43 284.50,81.38 285.55,79.63 285.90,77.18"/>
    </edge>
    <edge id=":J11_13" function="internal">
        <lane id=":J11_13_0" index="0" speed="13.89" length="14.40" shape="280.30,82.78 294.70,82.78"/>
    </edge>
    <edge id=":J11_14" function="internal">
        <lane id=":J11_14_0" index="0" speed="8.00" length="14.19" shape="280.30,82.78 284.15,83.33 286.90,84.98 288.55,87.73 289.10,91.58"/>
    </edge>
    <edge id=":J11_15" function="internal">
        <lane id=":J11_15_0" index="0" speed="3.65" length="4.67" shape="280.30,82.78 281.50,83.58 281.90,84.38 281.50,85.18 280.30,85.98"/>
    </edge>
    <edge id=":J12_0" function="internal">
        <lane id=":J12_0_0" index="0" speed="6.08" length="7.74" shape="290.70,107.85 288.60,107.55 287.10,106.65 286.20,105.15 285.90,103.05"/>
    </edge>
    <edge id=":J12_1" function="internal">
        <lane id=":J12_1_0" index="0" speed="3.65" length="1.44" shape="290.70,107.85 289.50,107.05"/>
    </edge>
    <edge id=":J12_4" function="internal">
        <lane id=":J12_4_0" index="0" speed="3.65" length="3.23" shape="289.50,107.05 289.10,106.25 289.50,105.45 290.70,104.65"/>
    </edge>
    <edge id=":J12_2" function="internal">
        <lane id=":J12_2_0" index="0" speed="3.90" length="2.58" shape="289.10,103.05 289.20,103.75 289.50,104.25 290.00,104.55 290.70,104.65"/>
    </edge>
    <edge id=":J12_3" function="internal">
        <lane id=":J12_3_0" index="0" speed="3.65" length="1.30" shape="289.10,103.05 288.38,104.13"/>
    </edge>
    <edge id=":J12_5" function="internal">
        <lane id=":J12_5_0" index="0" speed="3.65" length="3.37" shape="288.38,104.13 288.30,104.25 287.50,104.65 286.70,104.25 285.90,103.05"/>
    </edge>
    <edge id=":J13_0" function="internal">
        <lane id=":J13_0_0" index="0" speed="6.08" length="7.74" shape="385.98,103.05 385.68,105.15 384.78,106.65 383.28,107.55 381.18,107.85"/>
    </edge>
    <edge id=":J13_1" function="internal">
        <lane id=":J13_1_0" index="0" speed="3.65" length="1.44" shape="385.98,103.05 385.18,104.25"/>
    </edge>
    <edge id=":J13_4" function="internal">
        <lane id=":J13_4_0" index="0" speed="3.65" length="3.23" shape="385.18,104.25 384.38,104.65 383.58,104.25 382.78,103.05"/>
    </edge>
    <edge id=":J13_2" function="internal">
        <lane id=":J13_2_0" index="0" speed="3.90" length="2.58" shape="381.18,104.65 381.88,104.55 382.38,104.25 382.68,103.75 382.78,103.05"/>
    </edge>
    <edge id=":J13_3" function="internal">
        <lane id=":J13_3_0" index="0" speed="3.65" length="1.30" shape="381.18,104.65 382.26,105.37"/>
    </edge>
    <edge id=":J13_5" function="internal">
        <lane id=":J13_5_0" index="0" speed="3.65" length="3.37" shape="382.26,105.37 382.38,105.45 382.78,106.25 382.38,107.05 381.18,107.85"/>
    </edge>
    <edge id=":J14_0" function="internal">
        <lane id=":J14_0_0" index="0" speed="3.90" length="2.58" shape="329.65,87.58 329.55,86.88 329.25,86.38 328.75,86.08 328.05,85.98"/>
    </edge>
    <edge id=":J14_1" function="internal">
        <lane id=":J14_1_0" index="0" speed="3.65" length="1.30" shape="329.65,87.58 330.37,86.50"/>
    </edge>
    <edge id=":J14_4" function="internal">
        <lane id=":J14_4_0" index="0" speed="3.65" length="3.37" shape="330.37,86.50 330.45,86.38 331.25,85.98 332.05,86.38 332.85,87.58"/>
    </edge>
    <edge id=":J14_2" function="internal">
        <lane id=":J14_2_0" index="0" speed="6.08" length="7.74" shape="328.05,82.78 330.15,83.08 331.65,83.98 332.55,85.48 332.85,87.58"/>
    </edge>
    <edge id=":J14_3" function="internal">
        <lane id=":J14_3_0" index="0" speed="3.65" length="1.44" shape="328.05,82.78 329.25,83.58"/>
    </edge>
    <edge id=":J14_5" function="internal">
        <lane id=":J14_5_0" index="0" speed="3.65" length="3.23" shape="329.25,83.58 329.65,84.38 329.25,85.18 328.05,85.98"/>
    </edge>
    <edge id=":J15_0" function="internal">
        <lane id=":J15_0_0" index="0" speed="13.89" length="14.40" shape="182.78,4.08 182.78,-10.32"/>
    </edge>
    <edge id=":J15_1" function="internal">
        <lane id=":J15_1_0" index="0" speed="8.00" length="4.07" shape="182.78,4.08 183.33,0.23 183.42,0.08"/>
    </edge>
    <edge id=":J15_2" function="internal">
        <lane id=":J15_2_0" index="0" speed="3.65" length="1.44" shape="182.78,4.08 183.58,2.88"/>
    </edge>
    <edge id=":J15_9" function="internal">
        <lane id=":J15_9_0" index="0" speed="8.00" length="10.13" shape="183.42,0.08 184.98,-2.52 187.73,-4.17 191.58,-4.72"/>
    </edge>
    <edge id=":J15_10" function="internal">
        <lane id=":J15_10_0" index="0" speed="3.65" length="3.23" shape="183.58,2.88 184.38,2.48 185.18,2.88 185.98,4.08"/>
    </edge>
    <edge id=":J15_3" function="internal">
        <lane id=":J15_3_0" index="0" speed="6.51" length="9.03" shape="191.58,-1.52 189.13,-1.17 187.38,-0.12 186.33,1.63 185.98,4.08"/>
    </edge>
    <edge id=":J15_4" function="internal">
        <lane id=":J15_4_0" index="0" speed="8.00" length="14.19" shape="191.58,-1.52 187.73,-2.07 184.98,-3.72 183.33,-6.47 182.78,-10.32"/>
    </edge>
    <edge id=":J15_5" function="internal">
        <lane id=":J15_5_0" index="0" speed="3.65" length="4.67" shape="191.58,-1.52 190.38,-2.32 189.98,-3.12 190.38,-3.92 191.58,-4.72"/>
    </edge>
    <edge id=":J15_6" function="internal">
        <lane id=":J15_6_0" index="0" speed="6.51" length="9.03" shape="185.98,-10.32 186.33,-7.87 187.38,-6.12 189.13,-5.07 191.58,-4.72"/>
    </edge>
    <edge id=":J15_7" function="internal">
        <lane id=":J15_7_0" index="0" speed="13.89" length="14.40" shape="185.98,-10.32 185.98,4.08"/>
    </edge>
    <edge id=":J15_8" function="internal">
        <lane id=":J15_8_0" index="0" speed="3.65" length="1.44" shape="185.98,-10.32 185.18,-9.12"/>
    </edge>
    <edge id=":J15_11" function="internal">
        <lane id=":J15_11_0" index="0" speed="3.65" length="3.23" shape="185.18,-9.12 184.38,-8.72 183.58,-9.12 182.78,-10.32"/>
    </edge>
    <edge id=":J16_0" function="internal">
        <lane id=":J16_0_0" index="0" speed="6.08" length="7.74" shape="332.85,-6.32 332.55,-4.22 331.65,-2.72 330.15,-1.82 328.05,-1.52"/>
    </edge>
    <edge id=":J16_1" function="internal">
        <lane id=":J16_1_0" index="0" speed="3.65" length="1.44" shape="332.85,-6.32 332.05,-5.12"/>
    </edge>
    <edge id=":J16_4" function="internal">
        <lane id=":J16_4_0" index="0" speed="3.65" length="3.23" shape="332.05,-5.12 331.25,-4.72 330.45,-5.12 329.65,-6.32"/>
    </edge>
    <edge id=":J16_2" function="internal">
        <lane id=":J16_2_0" index="0" speed="3.90" length="2.58" shape="328.05,-4.72 328.75,-4.82 329.25,-5.12 329.55,-5.62 329.65,-6.32"/>
    </edge>
    <edge id=":J16_3" function="internal">
        <lane id=":J16_3_0" index="0" speed="3.65" length="1.30" shape="328.05,-4.72 329.13,-4.00"/>
    </edge>
    <edge id=":J16_5" function="internal">
        <lane id=":J16_5_0" index="0" speed="3.65" length="3.37" shape="329.13,-4.00 329.25,-3.92 329.65,-3.12 329.25,-2.32 328.05,-1.52"/>
    </edge>
    <edge id=":J17_0" function="internal">
        <lane id=":J17_0_0" index="0" speed="3.90" length="2.58" shape="329.65,-31.18 329.55,-31.88 329.25,-32.38 328.75,-32.68 328.05,-32.78"/>
    </edge>
    <edge id=":J17_1" function="internal">
        <lane id=":J17_1_0" index="0" speed="3.65" length="1.30" shape="329.65,-31.18 330.37,-32.26"/>
    </edge>
    <edge id=":J17_4" function="internal">
        <lane id=":J17_4_0" index="0" speed="3.65" length="3.37" shape="330.37,-32.26 330.45,-32.38 331.25,-32.78 332.05,-32.38 332.85,-31.18"/>
    </edge>
    <edge id=":J17_2" function="internal">
        <lane id=":J17_2_0" index="0" speed="6.08" length="7.74" shape="328.05,-35.98 330.15,-35.68 331.65,-34.78 332.55,-33.28 332.85,-31.18"/>
    </edge>
    <edge id=":J17_3" function="internal">
        <lane id=":J17_3_0" index="0" speed="3.65" length="1.44" shape="328.05,-35.98 329.25,-35.18"/>
    </edge>
    <edge id=":J17_5" function="internal">
        <lane id=":J17_5_0" index="0" speed="3.65" length="3.23" shape="329.25,-35.18 329.65,-34.38 329.25,-33.58 328.05,-32.78"/>
    </edge>
    <edge id=":J18_0" function="internal">
        <lane id=":J18_0_0" index="0" speed="13.89" length="14.40" shape="226.52,-27.18 226.52,-41.58"/>
    </edge>
    <edge id=":J18_1" function="internal">
        <lane id=":J18_1_0" index="0" speed="8.00" length="4.07" shape="226.52,-27.18 227.07,-31.03 227.16,-31.18"/>
    </edge>
    <edge id=":J18_2" function="internal">
        <lane id=":J18_2_0" index="0" speed="3.65" length="1.44" shape="226.52,-27.18 227.32,-28.38"/>
    </edge>
    <edge id=":J18_9" function="internal">
        <lane id=":J18_9_0" index="0" speed="8.00" length="10.13" shape="227.16,-31.18 228.72,-33.78 231.47,-35.43 235.32,-35.98"/>
    </edge>
    <edge id=":J18_10" function="internal">
        <lane id=":J18_10_0" index="0" speed="3.65" length="3.23" shape="227.32,-28.38 228.12,-28.78 228.92,-28.38 229.72,-27.18"/>
    </edge>
    <edge id=":J18_3" function="internal">
        <lane id=":J18_3_0" index="0" speed="6.51" length="9.03" shape="235.32,-32.78 232.87,-32.43 231.12,-31.38 230.07,-29.63 229.72,-27.18"/>
    </edge>
    <edge id=":J18_4" function="internal">
        <lane id=":J18_4_0" index="0" speed="8.00" length="14.19" shape="235.32,-32.78 231.47,-33.33 228.72,-34.98 227.07,-37.73 226.52,-41.58"/>
    </edge>
    <edge id=":J18_5" function="internal">
        <lane id=":J18_5_0" index="0" speed="3.65" length="4.67" shape="235.32,-32.78 234.12,-33.58 233.72,-34.38 234.12,-35.18 235.32,-35.98"/>
    </edge>
    <edge id=":J18_6" function="internal">
        <lane id=":J18_6_0" index="0" speed="6.51" length="9.03" shape="229.72,-41.58 230.07,-39.13 231.12,-37.38 232.87,-36.33 235.32,-35.98"/>
    </edge>
    <edge id=":J18_7" function="internal">
        <lane id=":J18_7_0" index="0" speed="13.89" length="14.40" shape="229.72,-41.58 229.72,-27.18"/>
    </edge>
    <edge id=":J18_8" function="internal">
        <lane id=":J18_8_0" index="0" speed="3.65" length="1.44" shape="229.72,-41.58 228.92,-40.38"/>
    </edge>
    <edge id=":J18_11" function="internal">
        <lane id=":J18_11_0" index="0" speed="3.65" length="3.23" shape="228.92,-40.38 228.12,-39.98 227.32,-40.38 226.52,-41.58"/>
    </edge>
    <edge id=":J19_0" function="internal">
        <lane id=":J19_0_0" index="0" speed="6.08" length="7.74" shape="231.32,23.48 229.22,23.18 227.72,22.28 226.82,20.78 226.52,18.68"/>
    </edge>
    <edge id=":J19_1" function="internal">
        <lane id=":J19_1_0" index="0" speed="3.65" length="1.44" shape="231.32,23.48 230.12,22.68"/>
    </edge>
    <edge id=":J19_4" function="internal">
        <lane id=":J19_4_0" index="0" speed="3.65" length="3.23" shape="230.12,22.68 229.72,21.88 230.12,21.08 231.32,20.28"/>
    </edge>
    <edge id=":J19_2" function="internal">
        <lane id=":J19_2_0" index="0" speed="3.90" length="2.58" shape="229.72,18.68 229.82,19.38 230.12,19.88 230.62,20.18 231.32,20.28"/>
    </edge>
    <edge id=":J19_3" function="internal">
        <lane id=":J19_3_0" index="0" speed="3.65" length="1.30" shape="229.72,18.68 229.00,19.76"/>
    </edge>
    <edge id=":J19_5" function="internal">
        <lane id=":J19_5_0" index="0" speed="3.65" length="3.37" shape="229.00,19.76 228.92,19.88 228.12,20.28 227.32,19.88 226.52,18.68"/>
    </edge>
    <edge id=":J2_0" function="internal">
        <lane id=":J2_0_0" index="0" speed="6.08" length="7.74" shape="100.08,126.60 97.98,126.30 96.48,125.40 95.58,123.90 95.28,121.80"/>
    </edge>
    <edge id=":J2_1" function="internal">
        <lane id=":J2_1_0" index="0" speed="3.65" length="1.44" shape="100.08,126.60 98.88,125.80"/>
    </edge>
    <edge id=":J2_4" function="internal">
        <lane id=":J2_4_0" index="0" speed="3.65" length="3.23" shape="98.88,125.80 98.48,125.00 98.88,124.20 100.08,123.40"/>
    </edge>
    <edge id=":J2_2" function="internal">
        <lane id=":J2_2_0" index="0" speed="3.90" length="2.58" shape="98.48,121.80 98.58,122.50 98.88,123.00 99.38,123.30 100.08,123.40"/>
    </edge>
    <edge id=":J2_3" function="internal">
        <lane id=":J2_3_0" index="0" speed="3.65" length="1.30" shape="98.48,121.80 97.76,122.88"/>
    </edge>
    <edge id=":J2_5" function="internal">
        <lane id=":J2_5_0" index="0" speed="3.65" length="3.37" shape="97.76,122.88 97.68,123.00 96.88,123.40 96.08,123.00 95.28,121.80"/>
    </edge>
    <edge id=":J20_0" function="internal">
        <lane id=":J20_0_0" index="0" speed="6.08" length="7.74" shape="460.98,18.68 460.68,20.78 459.78,22.28 458.28,23.18 456.18,23.48"/>
    </edge>
    <edge id=":J20_1" function="internal">
        <lane id=":J20_1_0" index="0" speed="3.65" length="1.44" shape="460.98,18.68 460.18,19.88"/>
    </edge>
    <edge id=":J20_4" function="internal">
        <lane id=":J20_4_0" index="0" speed="3.65" length="3.23" shape="460.18,19.88 459.38,20.28 458.58,19.88 457.78,18.68"/>
    </edge>
    <edge id=":J20_2" function="internal">
        <lane id=":J20_2_0" index="0" speed="3.90" length="2.58" shape="456.18,20.28 456.88,20.18 457.38,19.88 457.68,19.38 457.78,18.68"/>
    </edge>
    <edge id=":J20_3" function="internal">
        <lane id=":J20_3_0" index="0" speed="3.65" length="1.30" shape="456.18,20.28 457.26,21.00"/>
    </edge>
    <edge id=":J20_5" function="internal">
        <lane id=":J20_5_0" index="0" speed="3.65" length="3.37" shape="457.26,21.00 457.38,21.08 457.78,21.88 457.38,22.68 456.18,23.48"/>
    </edge>
    <edge id=":J21_0" function="internal">
        <lane id=":J21_0_0" index="0" speed="13.89" length="14.40" shape="457.78,0.95 457.78,-13.45"/>
    </edge>
    <edge id=":J21_1" function="internal">
        <lane id=":J21_1_0" index="0" speed="8.00" length="4.07" shape="457.78,0.95 458.33,-2.90 458.42,-3.05"/>
    </edge>
    <edge id=":J21_2" function="internal">
        <lane id=":J21_2_0" index="0" speed="3.65" length="1.44" shape="457.78,0.95 458.58,-0.25"/>
    </edge>
    <edge id=":J21_9" function="internal">
        <lane id=":J21_9_0" index="0" speed="8.00" length="10.13" shape="458.42,-3.05 459.98,-5.65 462.73,-7.30 466.58,-7.85"/>
    </edge>
    <edge id=":J21_10" function="internal">
        <lane id=":J21_10_0" index="0" speed="3.65" length="3.23" shape="458.58,-0.25 459.38,-0.65 460.18,-0.25 460.98,0.95"/>
    </edge>
    <edge id=":J21_3" function="internal">
        <lane id=":J21_3_0" index="0" speed="6.51" length="9.03" shape="466.58,-4.65 464.13,-4.30 462.38,-3.25 461.33,-1.50 460.98,0.95"/>
    </edge>
    <edge id=":J21_4" function="internal">
        <lane id=":J21_4_0" index="0" speed="8.00" length="14.19" shape="466.58,-4.65 462.73,-5.20 459.98,-6.85 458.33,-9.60 457.78,-13.45"/>
    </edge>
    <edge id=":J21_5" function="internal">
        <lane id=":J21_5_0" index="0" speed="3.65" length="4.67" shape="466.58,-4.65 465.38,-5.45 464.98,-6.25 465.38,-7.05 466.58,-7.85"/>
    </edge>
    <edge id=":J21_6" function="internal">
        <lane id=":J21_6_0" index="0" speed="6.51" length="9.03" shape="460.98,-13.45 461.33,-11.00 462.38,-9.25 464.13,-8.20 466.58,-7.85"/>
    </edge>
    <edge id=":J21_7" function="internal">
        <lane id=":J21_7_0" index="0" speed="13.89" length="14.40" shape="460.98,-13.45 460.98,0.95"/>
    </edge>
    <edge id=":J21_8" function="internal">
        <lane id=":J21_8_0" index="0" speed="3.65" length="1.44" shape="460.98,-13.45 460.18,-12.25"/>
    </edge>
    <edge id=":J21_11" function="internal">
        <lane id=":J21_11_0" index="0" speed="3.65" length="3.23" shape="460.18,-12.25 459.38,-11.85 458.58,-12.25 457.78,-13.45"/>
    </edge>
    <edge id=":J22_0" function="internal">
        <lane id=":J22_0_0" index="0" speed="3.65" length="4.67" shape="490.62,-7.85 491.82,-7.05 492.22,-6.25 491.82,-5.45 490.62,-4.65"/>
    </edge>
    <edge id=":J23_0" function="internal">
        <lane id=":J23_0_0" index="0" speed="13.89" length="14.40" shape="457.78,-24.05 457.78,-38.45"/>
    </edge>
    <edge id=":J23_1" function="internal">
        <lane id=":J23_1_0" index="0" speed="8.00" length="4.07" shape="457.78,-24.05 458.33,-27.90 458.42,-28.05"/>
    </edge>
    <edge id=":J23_2" function="internal">
        <lane id=":J23_2_0" index="0" speed="3.65" length="1.44" shape="457.78,-24.05 458.58,-25.25"/>
    </edge>
    <edge id=":J23_9" function="internal">
        <lane id=":J23_9_0" index="0" speed="8.00" length="10.13" shape="458.42,-28.05 459.98,-30.65 462.73,-32.30 466.58,-32.85"/>
    </edge>
    <edge id=":J23_10" function="internal">
        <lane id=":J23_10_0" index="0" speed="3.65" length="3.23" shape="458.58,-25.25 459.38,-25.65 460.18,-25.25 460.98,-24.05"/>
    </edge>
    <edge id=":J23_3" function="internal">
        <lane id=":J23_3_0" index="0" speed="6.51" length="9.03" shape="466.58,-29.65 464.13,-29.30 462.38,-28.25 461.33,-26.50 460.98,-24.05"/>
    </edge>
    <edge id=":J23_4" function="internal">
        <lane id=":J23_4_0" index="0" speed="8.00" length="14.19" shape="466.58,-29.65 462.73,-30.20 459.98,-31.85 458.33,-34.60 457.78,-38.45"/>
    </edge>
    <edge id=":J23_5" function="internal">
        <lane id=":J23_5_0" index="0" speed="3.65" length="4.67" shape="466.58,-29.65 465.38,-30.45 464.98,-31.25 465.38,-32.05 466.58,-32.85"/>
    </edge>
    <edge id=":J23_6" function="internal">
        <lane id=":J23_6_0" index="0" speed="6.51" length="9.03" shape="460.98,-38.45 461.33,-36.00 462.38,-34.25 464.13,-33.20 466.58,-32.85"/>
    </edge>
    <edge id=":J23_7" function="internal">
        <lane id=":J23_7_0" index="0" speed="13.89" length="14.40" shape="460.98,-38.45 460.98,-24.05"/>
    </edge>
    <edge id=":J23_8" function="internal">
        <lane id=":J23_8_0" index="0" speed="3.65" length="1.44" shape="460.98,-38.45 460.18,-37.25"/>
    </edge>
    <edge id=":J23_11" function="internal">
        <lane id=":J23_11_0" index="0" speed="3.65" length="3.23" shape="460.18,-37.25 459.38,-36.85 458.58,-37.25 457.78,-38.45"/>
    </edge>
    <edge id=":J24_0" function="internal">
        <lane id=":J24_0_0" index="0" speed="3.65" length="4.67" shape="490.62,-32.85 491.82,-32.05 492.22,-31.25 491.82,-30.45 490.62,-29.65"/>
    </edge>
    <edge id=":J25_0" function="internal">
        <lane id=":J25_0_0" index="0" speed="6.08" length="7.74" shape="457.78,-49.92 458.08,-52.02 458.98,-53.52 460.48,-54.42 462.58,-54.72"/>
    </edge>
    <edge id=":J25_1" function="internal">
        <lane id=":J25_1_0" index="0" speed="3.65" length="1.44" shape="457.78,-49.92 458.58,-51.12"/>
    </edge>
    <edge id=":J25_4" function="internal">
        <lane id=":J25_4_0" index="0" speed="3.65" length="3.23" shape="458.58,-51.12 459.38,-51.52 460.18,-51.12 460.98,-49.92"/>
    </edge>
    <edge id=":J25_2" function="internal">
        <lane id=":J25_2_0" index="0" speed="3.90" length="2.58" shape="462.58,-51.52 461.88,-51.42 461.38,-51.12 461.08,-50.62 460.98,-49.92"/>
    </edge>
    <edge id=":J25_3" function="internal">
        <lane id=":J25_3_0" index="0" speed="3.65" length="1.30" shape="462.58,-51.52 461.50,-52.24"/>
    </edge>
    <edge id=":J25_5" function="internal">
        <lane id=":J25_5_0" index="0" speed="3.65" length="3.37" shape="461.50,-52.24 461.38,-52.32 460.98,-53.12 461.38,-53.92 462.58,-54.72"/>
    </edge>
    <edge id=":J26_0" function="internal">
        <lane id=":J26_0_0" index="0" speed="3.65" length="4.67" shape="490.62,-54.72 491.82,-53.92 492.22,-53.12 491.82,-52.32 490.62,-51.52"/>
    </edge>
    <edge id=":J28_0" function="internal">
        <lane id=":J28_0_0" index="0" speed="6.08" length="7.74" shape="329.72,-100.08 329.42,-97.98 328.52,-96.48 327.02,-95.58 324.92,-95.28"/>
    </edge>
    <edge id=":J28_1" function="internal">
        <lane id=":J28_1_0" index="0" speed="3.65" length="1.44" shape="329.72,-100.08 328.92,-98.88"/>
    </edge>
    <edge id=":J28_4" function="internal">
        <lane id=":J28_4_0" index="0" speed="3.65" length="3.23" shape="328.92,-98.88 328.12,-98.48 327.32,-98.88 326.52,-100.08"/>
    </edge>
    <edge id=":J28_2" function="internal">
        <lane id=":J28_2_0" index="0" speed="3.90" length="2.58" shape="324.92,-98.48 325.62,-98.58 326.12,-98.88 326.42,-99.38 326.52,-100.08"/>
    </edge>
    <edge id=":J28_3" function="internal">
        <lane id=":J28_3_0" index="0" speed="3.65" length="1.30" shape="324.92,-98.48 326.00,-97.76"/>
    </edge>
    <edge id=":J28_5" function="internal">
        <lane id=":J28_5_0" index="0" speed="3.65" length="3.37" shape="326.00,-97.76 326.12,-97.68 326.52,-96.88 326.12,-96.08 324.92,-95.28"/>
    </edge>
    <edge id=":J29_0" function="internal">
        <lane id=":J29_0_0" index="0" speed="3.90" length="2.58" shape="326.52,-128.05 326.42,-128.75 326.12,-129.25 325.62,-129.55 324.92,-129.65"/>
    </edge>
    <edge id=":J29_1" function="internal">
        <lane id=":J29_1_0" index="0" speed="3.65" length="1.30" shape="326.52,-128.05 327.24,-129.13"/>
    </edge>
    <edge id=":J29_4" function="internal">
        <lane id=":J29_4_0" index="0" speed="3.65" length="3.37" shape="327.24,-129.13 327.32,-129.25 328.12,-129.65 328.92,-129.25 329.72,-128.05"/>
    </edge>
    <edge id=":J29_2" function="internal">
        <lane id=":J29_2_0" index="0" speed="6.08" length="7.74" shape="324.92,-132.85 327.02,-132.55 328.52,-131.65 329.42,-130.15 329.72,-128.05"/>
    </edge>
    <edge id=":J29_3" function="internal">
        <lane id=":J29_3_0" index="0" speed="3.65" length="1.44" shape="324.92,-132.85 326.12,-132.05"/>
    </edge>
    <edge id=":J29_5" function="internal">
        <lane id=":J29_5_0" index="0" speed="3.65" length="3.23" shape="326.12,-132.05 326.52,-131.25 326.12,-130.45 324.92,-129.65"/>
    </edge>
    <edge id=":J3_0" function="internal">
        <lane id=":J3_0_0" index="0" speed="3.90" length="2.58" shape="114.02,128.20 113.92,127.50 113.62,127.00 113.12,126.70 112.42,126.60"/>
    </edge>
    <edge id=":J3_1" function="internal">