<nodes>
<node id="65381218" x="-179.73810538242105" y="378.93855077493936" />
<node id="65381219" x="-194.85064981947653" y="397.1575035797432" />
<node id="65384635" x="398.7657941885991" y="1255.032063812483" />
<node id="65384636" x="422.65220779785886" y="1230.0460322462022" />
<node id="65392047" x="662.6964812654769" y="-455.00267041567713" />
<node id="65422311" x="-1118.143068030011" y="-218.1068204967305" />
<node id="65427080" x="243.0639600114664" y="-93.63800869882107" />
<node id="65427081" x="282.5423658718355" y="56.86345667671412" />
<node id="65427082" x="314.57258090225514" y="180.97016479820013" />
<node id="65427084" x="349.39939583814703" y="319.89182923641056" />
<node id="65458552" x="-54.95827060274314" y="-649.5085208630189" />
<node id="65461960" x="-432.25267864810303" y="-20.375081803184003" />
<node id="65473412" x="134.53776487638243" y="95.35609048977494" />
<node id="65473421" x="494.540359291248" y="-129.71488195983693" />
<node id="65476295" x="275.5333141279407" y="1195.5918037593365" />
<node id="65476297" x="390.02827981079463" y="1086.749490457587" />
<node id="65480714" x="-247.19544316781685" y="-828.454624527134" />
<node id="65484362" x="619.4996511249337" y="340.3923313245177" />
<node id="65501977" x="-280.379938667058" y="-586.0585065633059" />
<node id="65510924" x="268.2551071451744" y="-956.3857174487785" />
<node id="65511047" x="365.0629057630431" y="-891.133266360499" />
<node id="65511122" x="594.7932027609786" y="-888.0892430511303" />
<node id="65511125" x="590.7119148042984" y="-898.8545975722373" />
<node id="65511794" x="-674.0577625957085" y="-633.9363958514296" />
<node id="65525278" x="-892.3482333247084" y="-424.161133996211" />
<node id="65525280" x="-678.8983596948674" y="-481.64055616175756" />
<node id="65528782" x="-1008.7895807116292" y="-552.2242704816163" />
<node id="65539580" x="481.458144600736" y="-847.5528572802432" />
<node id="65539585" x="504.16459901072085" y="-690.7082670740783" />
<node id="65539592" x="545.6966441320255" y="-459.60223303409293" />
<node id="65543380" x="1001.4227217263542" y="292.79673364572227" />
<node id="65543924" x="236.41213916009292" y="-364.48870435124263" />
<node id="65545423" x="-975.2405208642595" y="393.9828731766902" />
<node id="65545427" x="-808.5175880672177" y="342.4192103263922" />
<node id="65545431" x="-553.1835063750623" y="277.86312406370416" />
<node id="65545441" x="-536.5980525220511" y="342.1387770026922" />
<node id="65545447" x="-791.9137314315885" y="407.8372929068282" />
<node id="65546898" x="320.2242136641871" y="817.7471519904211" />
<node id="65546899" x="637.7918623164296" y="633.937375862617" />
<node id="65556600" x="-263.1541359273251" y="-1284.2995961545967" />
<node id="65556602" x="110.16034209122881" y="-1121.5354814068414" />
<node id="65556603" x="191.12009860645048" y="-1020.9198350645602" />
<node id="65556607" x="418.68604200321715" y="-860.8791996804066" />
<node id="65556629" x="862.5239118334139" y="-807.7769249933772" />
<node id="65556645" x="997.8507582289167" y="-426.66743638413027" />
<node id="65556654" x="643.352392465109" y="-901.5386484283954" />
<node id="65556664" x="787.4771346572088" y="-873.6295620161109" />
<node id="65559188" x="-789.9926872954238" y="22.54828516114503" />
<node id="65559198" x="-691.0481821760768" y="44.24719136906788" />
<node id="65559205" x="-693.3050797099713" y="17.93170725554228" />
<node id="65559212" x="-774.3385641818168" y="-2.0578833278268576" />
<node id="65559217" x="-916.0366355398437" y="-270.2981581967324" />
<node id="65562618" x="166.08718324650545" y="218.02665282785892" />
<node id="65562620" x="222.06104626867454" y="431.2620993531309" />
<node id="65562622" x="224.3447310315678" y="440.1696073161438" />
<node id="65562625" x="409.8216592078097" y="1164.3922991603613" />
<node id="65565057" x="-1225.8168899524026" y="-199.83330661430955" />
<node id="65565059" x="-1096.5019369355869" y="-223.00088596716523" />
<node id="65565064" x="-861.2568915495649" y="-283.46913194376975" />
<node id="65565068" x="-681.0225435873726" y="-313.088617247995" />
<node id="65565228" x="-674.1007588973735" y="-501.1153107266873" />
<node id="65566209" x="-236.12175801757257" y="-1015.5459236684255" />
<node id="65566622" x="1217.5971807844471" y="-12.257790093310177" />
<node id="65586584" x="826.8969483055407" y="262.2383639146574" />
<node id="65598495" x="-695.5930356928147" y="-75.87661521462724" />
<node id="65598497" x="-696.0647219358943" y="-155.75561625417322" />
<node id="65598519" x="-198.96794555219822" y="-496.7375857140869" />
<node id="65629821" x="18.150221408111975" y="255.25701234443113" />
<node id="65643858" x="966.9311844992917" y="-301.32188593409956" />
<node id="65644358" x="-252.17118268541526" y="194.99751309491694" />
<node id="65644363" x="-13.541976036620326" y="132.49703212175518" />
<node id="65644370" x="-261.7606997162802" y="196.83289752248675" />
<node id="65658619" x="-906.9233567670453" y="-450.45044276397675" />
<node id="65658657" x="-226.25137916393578" y="-602.304477868136" />
<node id="65659940" x="-1222.6927324944409" y="-10.754148127045482" />
<node id="65662175" x="712.3888246130664" y="-551.4456040360965" />
<node id="65665821" x="-1076.0967701983172" y="168.71683495957404" />
<node id="65665823" x="-1043.1624457745347" y="188.82974915532395" />
<node id="65665828" x="-842.7886907208012" y="206.59215189982206" />
<node id="65675373" x="704.5452245724155" y="-649.653315752279" />
<node id="65675375" x="793.6481990169268" y="-673.004739466589" />
<node id="65682573" x="54.22994594380725" y="393.0788496704772" />
<node id="65682762" x="-306.1320442543365" y="6.936315836850554" />
<node id="65682860" x="-429.9756484796526" y="-11.623170972801745" />
<node id="65683555" x="-833.5545843741857" y="106.27134025888517" />
<node id="93412379" x="-503.46814211516175" y="-1191.3272301391698" />
<node id="93412380" x="-402.800324789132" y="-1258.8161503090523" />
<node id="256558437" x="524.1291113750776" y="-604.9976737503894" />
<node id="256558438" x="480.0865732913371" y="-778.6077090571634" />
<node id="256558465" x="364.0004838218447" y="-637.870294149965" />
<node id="256558468" x="471.29665577679407" y="-591.407931198366" />
<node id="256566556" x="71.6772517284844" y="-665.625171049498" />
<node id="256566598" x="15.81085373996757" y="-771.7774291108362" />
<node id="256566603" x="-41.71293289761525" y="-779.1736173951067" />
<node id="256566748" x="-53.162010012427345" y="-642.4583162190393" />
<node id="256566762" x="105.29393933876418" y="-669.6451062816195" />
<node id="256566854" x="180.11458828102332" y="-678.1058488260023" />
<node id="256566999" x="346.27720638597384" y="-708.0383246745914" />
<node id="256567929" x="-154.08662250300404" y="-424.30192838888615" />
<node id="256567930" x="-169.4324040049687" y="-406.8950124834664" />
<node id="256568153" x="122.8060032534413" y="-599.3907290180214" />
<node id="256568484" x="166.92446609097533" y="-383.50893176859245" />
<node id="256568638" x="-155.58983447158244" y="170.0707846158184" />
<node id="256568778" x="639.3918808975723" y="537.4333067112602" />
<node id="256568779" x="660.9989789400715" y="579.1217109425925" />
<node id="256568831" x="650.263395368238" y="-48.2589110173285" />
<node id="256568832" x="566.0753340470837" y="-615.3217374584638" />
<node id="256568846" x="750.2958651919616" y="-842.0499985441566" />
<node id="256568854" x="-122.89659402729012" y="-308.3374168793671" />
<node id="256568866" x="-88.41609390976373" y="-402.76603306783363" />
<node id="258983100" x="-939.3141835253919" y="-116.78657819936052" />
<node id="262235786" x="57.05551973392721" y="937.0736401532777" />
<node id="275515667" x="332.8188819222851" y="-88.47350242501125" />
<node id="275515717" x="270.23130648280494" y="9.166925349738449" />
<node id="275516062" x="-439.40961898164824" y="-47.82085506943986" />
<node id="281870455" x="153.02163863764144" y="-505.73527433583513" />
<node id="287472249" x="-1225.9055082326522" y="-95.51645231200382" />
<node id="287472352" x="-1368.5020471918397" y="-103.7724391198717" />
<node id="287476095" x="-125.79691907344386" y="-1025.861631306354" />
<node id="287476202" x="-33.522479588747956" y="-1059.5126718408428" />
<node id="287476363" x="95.28280102973804" y="-1084.1533915055916" />
<node id="287476573" x="-222.51367980544455" y="-964.8765055770054" />
<node id="287476735" x="-248.22378161002416" y="-1045.2320403382182" />
<node id="287476746" x="-235.4248695918359" y="-1119.2362407892942" />
<node id="287476747" x="-274.2281537184026" y="-1111.2549622617662" />
<node id="287476762" x="-259.8667974791024" y="-1100.0338095161133" />
<node id="287480632" x="663.1891108190175" y="-820.4667006051168" />
<node id="287481892" x="912.9371111197397" y="263.82564697787166" />
<node id="287980668" x="771.2283263369463" y="-847.5336291068234" />
<node id="288005601" x="-284.93546931329183" y="-705.3726890641265" />
<node id="288005655" x="-326.4547343853628" y="-678.0426580011845" />
<node id="288023791" x="237.20711961819325" y="446.4188828119077" />
<node id="288024410" x="311.6251205826411" y="835.7121268170886" />
<node id="288214364" x="-413.9375177419279" y="-1254.242470416706" />
<node id="302116672" x="92.5374597805785" y="-456.10653741285205" />
<node id="305587317" x="434.0365382885793" y="1217.2318747690879" />
<node id="314049419" x="-1022.3528336584568" y="-597.2999435332604" />
<node id="314054343" x="-995.3586979790125" y="-883.4231452378444" />
<node id="314055903" x="-1025.3826042034198" y="-668.2914900090545" />
<node id="314065986" x="-345.374916307861" y="-569.7631184258498" />
<node id="314066692" x="-257.31876517657656" y="-709.34681022726" />
<node id="314070304" x="-474.0865296899574" y="761.7322461172007" />
<node id="314070856" x="-138.80922322324477" y="301.4533722852357" />
<node id="314070873" x="-182.19984980276786" y="684.5037716329098" />
<node id="314071064" x="-264.742390898522" y="473.26826470158994" />
<node id="314071067" x="-297.65409091184847" y="376.21760411700234" />
<node id="314071075" x="-302.54625843581744" y="357.97843582509086" />
<node id="314071201" x="-224.3993961608503" y="483.58575110835955" />
<node id="314071202" x="-238.58951315667946" y="480.39894365752116" />
<node id="338518144" x="356.3692803635495" y="353.15065584424883" />
<node id="338518152" x="894.2184958120342" y="722.2513220580295" />
<node id="338518155" x="690.4830928221345" y="566.7016576584429" />
<node id="338518161" x="681.42933157261" y="567.0095579670742" />
<node id="338518162" x="683.1758929877542" y="554.653780172579" />
<node id="340316006" x="146.92859008035157" y="91.9370400425978" />
<node id="340331999" x="-474.915357894497" y="-138.103018774651" />
<node id="340332218" x="372.88695330545306" y="-571.0867639249191" />
<node id="340332219" x="374.56182839977555" y="-574.3672566050664" />
<node id="340332226" x="391.74144305463415" y="-563.8412006027065" />
<node id="340332231" x="376.4541788129136" y="-560.2151066861115" />
<node id="340332240" x="385.4065161680337" y="-577.9327923678793" />
<node id="340333103" x="537.7373146793107" y="-788.5709367054515" />
<node id="340333268" x="516.9755262695253" y="-624.5444184588268" />
<node id="340333270" x="625.6118175953161" y="-810.9919605073519" />
<node id="340333379" x="120.75590699643362" y="-558.5448315083049" />
<node id="340333385" x="89.49593636917416" y="-564.856115208473" />
<node id="340333457" x="22.68605501949787" y="-659.1219417611137" />
<node id="340333584" x="-24.13543544395361" y="-457.6440158118494" />
<node id="340333585" x="6.7273417433025315" y="-465.56080874986947" />
<node id="340334520" x="-318.7022658106871" y="-465.02304550865665" />
<node id="344843223" x="30.292440124205314" y="-310.90691524837166" />
<node id="344843743" x="-145.5241248771781" y="-222.45890150265768" />
<node id="344843953" x="131.75351048388984" y="-518.238552140072" />
<node id="354735610" x="525.7669887270313" y="149.67560349870473" />
<node id="354739993" x="5.907368477783166" y="-1060.2531954972073" />
<node id="354739994" x="37.27877553587314" y="-1031.1959649496712" />
<node id="354739997" x="100.58788714581169" y="-1013.3298378754407" />
<node id="354740008" x="-6.740496401209384" y="-1073.068559549749" />
<node id="354740028" x="-49.65130676294211" y="-1010.5689633972943" />
<node id="354784526" x="122.19314285926521" y="98.55366031313315" />
<node id="354785189" x="68.12499774049502" y="28.01036916207522" />
<node id="354797987" x="82.94955520355143" y="-621.3000568728894" />
<node id="354801007" x="515.1773199415766" y="-602.358645465225" />
<node id="354802071" x="687.9536022666143" y="-184.3855367768556" />
<node id="427841291" x="-886.3419209246058" y="-118.6007461193949" />
<node id="427841292" x="-1082.8649555620505" y="-19.09596082381904" />
<node id="462443355" x="-464.31661537801847" y="-354.49036782234907" />
<node id="518814468" x="308.2898114384152" y="822.6900187917054" />
<node id="518814480" x="333.2045684038894" y="811.5819699638523" />
<node id="518814481" x="337.06260875216685" y="826.5171069595963" />
<node id="518816371" x="236.13538657233585" y="437.533167607151" />
<node id="518816373" x="233.71930278476793" y="428.5912011829205" />
<node id="518816383" x="230.72593757207505" y="420.8979092068039" />
<node id="518816912" x="208.275834910688" y="432.32760969223455" />
<node id="518816913" x="210.50204537820537" y="441.73389535211027" />
<node id="518824010" x="642.4842375146691" y="-781.7836261000484" />
<node id="522173590" x="153.79855089925695" y="220.9139977018349" />
<node id="522173601" x="178.77048468671273" y="214.53256581863388" />
<node id="522187230" x="-397.72095539886504" y="-1240.5865716310218" />
<node id="522187243" x="-424.5998441961128" y="-1200.7566944002174" />
<node id="522188960" x="-282.89333795930725" y="-1283.7403029822744" />
<node id="522188983" x="-345.2598896861309" y="-1215.5181115618907" />
<node id="522188986" x="-288.6527224694146" y="-1242.5163699937984" />
<node id="522258539" x="380.29228989756666" y="1089.237446330022" />
<node id="522262600" x="-233.1224221115699" y="551.0685006347485" />
<node id="522262630" x="-223.73804562655278" y="549.3755964087322" />
<node id="522263513" x="-181.6628016155446" y="409.71111150085926" />
<node id="522263516" x="-525.1022731807316" y="-335.6270952662453" />
<node id="522263721" x="-435.4446327771293" y="-320.03112075990066" />
<node id="612018100" x="444.05519507289864" y="-320.9569405214861" />
<node id="621397382" x="419.6416453020647" y="1224.3496596859768" />
<node id="621397383" x="431.4085243011359" y="1211.2947884835303" />
<node id="663153661" x="652.4329879870638" y="584.2826338000596" />
<node id="663153663" x="655.8145059108501" y="600.0236516003497" />
<node id="689471609" x="-886.8371150015155" y="-132.88466309336945" />
<node id="689471688" x="-881.0400012782775" y="-119.83060663053766" />
<node id="689473424" x="-1129.847282226663" y="-15.131655668839812" />
<node id="689475473" x="-695.1835286720889" y="-82.25282950000837" />
<node id="689476111" x="-313.3089539334178" y="-4.044342590495944" />
<node id="689482700" x="-164.74980655533727" y="389.9879367966205" />
<node id="689485461" x="212.87371900852304" y="450.69765333877876" />
<node id="689487292" x="448.34574535675347" y="211.80029921699315" />
<node id="689487293" x="539.8019921043888" y="113.50723156845197" />
<node id="689489308" x="894.7691597525263" y="-231.46524702059105" />
<node id="689494384" x="414.90724887291435" y="1216.5077218585648" />
<node id="689494429" x="421.22558918746654" y="1184.3428158657625" />
<node id="689494888" x="438.50808821152896" y="1191.818779077381" />
<node id="689494891" x="437.14835528540425" y="1198.50831857929" />
<node id="689495069" x="452.18564797821455" y="1198.774650585372" />
<node id="689504503" x="170.12803035939578" y="1283.2571966112591" />
<node id="689512055" x="747.0882869607303" y="294.1930696545169" />
<node id="689515525" x="563.6874535118695" y="166.8545082481578" />
<node id="689521173" x="994.5139593582135" y="-387.87465661764145" />
<node id="689534772" x="819.3105583244469" y="-874.9996302044019" />
<node id="847411271" x="1107.3153439408634" y="-369.04877435881644" />
<node id="847423929" x="76.49135391507298" y="25.44338774587959" />
<node id="847436048" x="-139.1771849761717" y="354.41910599032417" />
<node id="847436737" x="-240.49439839972183" y="526.0837753349915" />
<node id="847439433" x="-171.92486293800175" y="675.0742252618074" />
<node id="847442370" x="-157.29893526050728" y="348.55694637820125" />
<node id="847467170" x="138.47837802197319" y="-1088.4328014971688" />
<node id="847467257" x="6.693413387634791" y="-1216.9893024214543" />
<node id="847469085" x="681.8013423765078" y="622.7336175283417" />
<node id="847469103" x="671.4082552877953" y="587.5689499378204" />
<node id="847469105" x="646.1160022792174" y="567.3283517006785" />
<node id="847469108" x="651.2147550667869" y="561.060384969227" />
<node id="847469304" x="656.4494811430341" y="639.1070468244143" />
<node id="847469449" x="655.494320898084" y="606.1898120315745" />
<node id="847469490" x="967.1018932482693" y="284.86812146846205" />
<node id="847469519" x="1042.764212490525" y="329.96889386465773" />
<node id="952997670" x="-328.88416972209234" y="-367.3628071178682" />
<node id="956656225" x="107.33300777280238" y="-1024.6097952518612" />
<node id="956657986" x="-143.33776385046076" y="-782.7849474577233" />
<node id="956660455" x="327.91943000175525" y="-945.761961420998" />
<node id="956660456" x="377.7403002229985" y="-915.7747733709402" />
<node id="956661154" x="204.0863012354821" y="1044.2529371357523" />
<node id="1083735850" x="900.0655454848893" y="730.3142556888051" />
<node id="1111928975" x="-220.34802513360046" y="717.5768605456688" />
<node id="1111929038" x="-230.25258172827307" y="700.9357493231073" />
<node id="1111929066" x="-222.87998536089435" y="788.331594152376" />
<node id="1111929069" x="-190.19781205791514" y="762.089596056845" />
<node id="1111929081" x="-175.9078841258306" y="755.8685550931841" />
<node id="1111929162" x="-210.79804491088726" y="779.6501505682245" />
<node id="1111929178" x="-247.5439328092616" y="821.3567170253955" />
<node id="1111929182" x="-157.41257091553416" y="749.3183307093568" />
<node id="1113685149" x="520.1711429362185" y="1125.2270176545717" />
<node id="1120952220" x="-1014.796504667378" y="-728.8019291581586" />
<node id="1120952244" x="-973.9021319579333" y="-758.8036225261167" />
<node id="1120952248" x="-1014.149857330136" y="-748.2573956316337" />
<node id="1120952283" x="-1014.9549533471" y="-710.5405137608759" />
<node id="1120952292" x="-965.1363540582824" y="-722.7345058624633" />
<node id="1120952293" x="-1223.2701474627247" y="-25.82650920888409" />
<node id="1120952295" x="-960.5360337876482" y="-705.2861032793298" />
<node id="1120952305" x="-977.6373372528469" y="-773.9810728053562" />
<node id="1120952335" x="-991.4036149136955" y="-814.0434836004861" />
<node id="1120952343" x="-1012.6883298348403" y="-764.7433580430225" />
<node id="1120952374" x="-983.3973376741633" y="-791.3840525047854" />
<node id="1120952408" x="-969.4965547316242" y="-739.3042950006202" />
<node id="1256091855" x="422.2372284018202" y="-111.27119115879759" />
<node id="1256091856" x="469.55364998523146" y="-60.86788777727634" />
<node id="1257080792" x="-207.4981763876276" y="-1069.6173352752812" />
<node id="1257080880" x="-138.67513158218935" y="-1053.7794877015986" />
<node id="1257080968" x="-128.74786255764775" y="-1091.8933514524251" />
<node id="1330035197" x="718.3668442040216" y="-160.65983463684097" />
<node id="1330035207" x="-749.8410689871525" y="327.3634825758636" />
<node id="1330035211" x="624.4997041730676" y="-166.15344993397593" />
<node id="1330035214" x="-703.4080292247236" y="345.6204207823612" />
<node id="1330035254" x="-732.2261782222195" y="392.4576418688521" />
<node id="1330035316" x="-1233.2617316596443" y="-10.24645911063999" />
<node id="1330035325" x="874.1530470711878" y="-251.4096203269437" />
<node id="1330035353" x="914.8180799122201" y="-214.4106576917693" />
<node id="1330035391" x="-701.5211116055725" y="353.4701395072043" />
<node id="1429242823" x="407.5010394481942" y="1227.6595353065059" />
<node id="1429242827" x="412.1410333357053" y="1228.1777129112743" />
<node id="1434767658" x="642.1523063514614" y="594.2326181083918" />
<node id="1434767660" x="647.4178697103634" y="617.0026103486307" />
<node id="1434767686" x="702.6024579609511" y="660.4872370888479" />
<node id="1434767708" x="802.8050110345939" y="709.598629638087" />
<node id="1707961571" x="-499.45201320014894" y="3.679919039364904" />
<node id="1707961572" x="-511.8684865201358" y="61.6884992220439" />
<node id="1707961574" x="-543.5895389880752" y="86.0983488317579" />
<node id="1707961578" x="-516.3664941043826" y="79.26850318955258" />
<node id="1757902279" x="843.0652960937005" y="-284.8392044012435" />
<node id="1758004045" x="762.3373654976021" y="-227.70635096915066" />
<node id="1758004047" x="752.5993445755448" y="-144.5558348344639" />
<node id="1758004048" x="764.3421633887338" y="-131.74728713650256" />
<node id="1758004054" x="699.145863390062" y="-193.25113291712478" />
<node id="1758054026" x="-556.55090717657" y="606.6426196992397" />
<node id="1758054032" x="-681.4809686229564" y="309.82958367234096" />
<node id="1758054039" x="-426.08953632670455" y="-21.941072850488126" />
<node id="1758054040" x="-501.410747485701" y="-7.0774357677437365" />
<node id="1758054044" x="-435.13442858029157" y="643.7194585106336" />
<node id="1758054068" x="-409.9309064147528" y="753.1954352119938" />
<node id="1768361413" x="32.05427911714651" y="-830.7279669339769" />
<node id="1768361415" x="-92.71949811314698" y="-805.2076937584206" />
<node id="1768361416" x="-93.89791256468743" y="-777.8459853483364" />
<node id="1768361417" x="42.003332992317155" y="-867.2326447744854" />
<node id="1768361418" x="-91.7543279012898" y="-823.4065715526231" />
<node id="1768361419" x="-34.18543208600022" y="-827.1389105441049" />
<node id="1768361420" x="-51.11574393720366" y="-862.1158721046522" />
<node id="1768361421" x="37.16279023466632" y="-849.1233666716143" />
<node id="1768361423" x="-35.04968669801019" y="-845.5868727751076" />
<node id="1768361425" x="-47.793712242273614" y="-807.1761059020646" />
<node id="1768361426" x="-48.987985963816755" y="-826.3370663835667" />
<node id="1768361427" x="-90.62878960906528" y="-842.7357584303245" />
<node id="1768361428" x="27.027767343912274" y="-812.5981292510405" />
<node id="1768361429" x="-53.71658927761018" y="-904.4783363952301" />
<node id="1768361431" x="-50.144267686409876" y="-844.7875938313082" />
<node id="1782352092" x="-52.303487482713535" y="-879.0022397339344" />
<node id="1782352093" x="71.05134774488397" y="-886.9484017146751" />
<node id="1782352094" x="-52.79936045256909" y="-887.017393338494" />
<node id="1782352096" x="71.22984024032485" y="-893.1490949783474" />
<node id="1782352097" x="133.59747923968825" y="-893.0878207753412" />
<node id="1782352099" x="46.2533596616704" y="-884.6037344941869" />
<node id="1782352102" x="-234.21113117493223" y="-874.1864493167959" />
<node id="1782352104" x="48.455610832897946" y="-891.5078051933087" />
<node id="1782352105" x="-235.3717571074376" y="-867.9721772666089" />
<node id="1782361535" x="-556.9803689573891" y="-660.2203795574605" />
<node id="1782361541" x="-505.9160482190782" y="-682.2644587852992" />
<node id="1782366277" x="-956.7518621461932" y="-682.5079655540176" />
<node id="1873984476" x="-1023.0733343387255" y="-855.9365867176093" />
<node id="2048603388" x="-569.9681753029581" y="609.1882953578606" />
<node id="2048603397" x="-621.2222850433318" y="664.02864461625" />
<node id="2054042522" x="-554.9531591874547" y="-123.29120985325426" />
<node id="2217384936" x="-516.034906438319" y="-299.9209362412803" />
<node id="2217384955" x="-253.5411104093073" y="-362.10901887202635" />
<node id="2380604029" x="-333.3861600931268" y="432.33513625059277" />
<node id="2392411733" x="336.60434428218286" y="-846.0827469532378" />
<node id="2392411736" x="312.97857810196" y="-859.2286396240816" />
<node id="2392411739" x="348.31583640084136" y="-839.5550522217527" />
<node id="2393501800" x="-473.7302272146335" y="756.3985240515321" />
<node id="2393501810" x="-411.3219308134867" y="746.3485546307638" />
<node id="2393501811" x="-616.1880364478566" y="657.9368878747337" />
<node id="2393501814" x="-184.61216353124473" y="678.1138852732256" />
<node id="2411555343" x="-583.2664570492925" y="-319.02612861897796" />
<node id="2571160864" x="785.9142391774803" y="-701.8547599124722" />
<node id="2571160870" x="806.6558283541817" y="-706.8074172227643" />
<node id="2571160871" x="775.9945803157752" y="-849.1444548410363" />
<node id="2571160872" x="774.5105812841794" y="-834.5118401716463" />
<node id="2571160873" x="827.5845386363799" y="-711.9025976839475" />
<node id="2571160874" x="716.0356221161783" y="-833.4448987427168" />
<node id="2571160875" x="704.1675682467176" y="-881.0937154986896" />
<node id="2571160876" x="684.1932673167903" y="-881.8702556835487" />
<node id="2571160880" x="724.2797704169061" y="-878.9067981587723" />
<node id="2572379123" x="672.6028421793599" y="-483.44075970491394" />
<node id="2572379124" x="715.1628063529497" y="-539.981691300869" />
<node id="2572379130" x="704.185482592904" y="-549.3881803913973" />
<node id="2572379131" x="716.46845600917" y="-602.2813659347594" />
<node id="2572379134" x="518.4970132978633" y="-203.09781974740326" />
<node id="2572379135" x="413.4487868337892" y="-109.03005056967959" />
<node id="2572379138" x="409.94612181314733" y="-161.1646241126582" />
<node id="2572379152" x="234.75655695586465" y="-896.7113885171711" />
<node id="2572379155" x="259.4775206547929" y="-939.431945014745" />
<node id="2572379167" x="139.53860624856316" y="-1056.1139853307977" />
<node id="2572379170" x="91.75596425286494" y="-966.0640557650477" />
<node id="2572379173" x="83.34651232021861" y="-1022.0139829521067" />
<node id="2572379174" x="-2.4135583612369373" y="-1048.8871645070612" />
<node id="2572379176" x="-14.308876656112261" y="-1037.5969468057156" />
<node id="2572379179" x="-74.4599060077453" y="-1037.2603699183092" />
<node id="2572379209" x="-637.9907569447532" y="-282.87816818477586" />
<node id="2572379211" x="-639.5513287484646" y="-332.21027456363663" />
<node id="2572379212" x="-595.325839895173" y="-343.47442668350413" />
<node id="2572379215" x="-599.3608604571782" y="-274.51922139525414" />
<node id="2572526524" x="-812.8146802696865" y="-150.98071933165193" />
<node id="2572526529" x="-716.1618301988347" y="-157.47301178332418" />
<node id="2572526533" x="-663.5795515839709" y="-156.12701699882746" />
<node id="2572526535" x="-664.0118704574415" y="-177.5779550690204" />
<node id="2572526539" x="-663.8691700764466" y="-83.34452809207141" />
<node id="2572526541" x="-662.2040009855991" y="-56.14657678920776" />
<node id="2572526543" x="-615.9687928321073" y="-51.49374629976228" />
<node id="2572526548" x="-632.3795786045957" y="-63.9526966647245" />
<node id="2572526550" x="-663.4450047321152" y="-77.19404549431056" />
<node id="2572526552" x="-615.1997069059871" y="-89.94327181624249" />
<node id="2572526554" x="-663.983879866777" y="-96.57109873974696" />
<node id="2572526618" x="42.074359825695865" y="249.27647810755298" />
<node id="2572526625" x="136.2732599391602" y="225.66357811540365" />
<node id="2572526631" x="199.00375531602185" y="209.72930360911414" />
<node id="2572526644" x="291.97805963200517" y="186.62881513871253" />
<node id="2572526648" x="-202.50062345864717" y="559.0706594865769" />
<node id="2572526650" x="-115.33129415789153" y="648.25475982856" />
<node id="2572526654" x="-124.06846995721571" y="628.6613339167088" />
<node id="2572526655" x="-182.10173152154312" y="611.8636714364402" />
<node id="2572526657" x="-137.11518682097085" y="611.171449245885" />
<node id="2572526659" x="-188.95321182836778" y="594.1286967890337" />
<node id="2572526661" x="-150.79171658004634" y="592.8550018710084" />
<node id="2572526663" x="-195.76155965717044" y="576.516155927442" />
<node id="2572526665" x="-163.9521914110519" y="575.2088293065317" />
<node id="2572535773" x="855.4205669775838" y="235.61939002433792" />
<node id="2572535774" x="885.6539020548807" y="262.4286663206294" />
<node id="2572535775" x="867.9909714097157" y="221.9842068119906" />
<node id="2572535776" x="880.5344797505531" y="208.39318361878395" />
<node id="2572535777" x="892.4527926733717" y="195.4623292181641" />
<node id="2572535779" x="904.8356471000006" y="182.03634008346125" />
<node id="2572535780" x="1012.819685582188" y="278.8073398503475" />
<node id="2572535781" x="649.3904997919453" y="196.55160745233297" />
<node id="2572535782" x="738.6402348739794" y="275.1005715834908" />
<node id="2572535785" x="613.0885162455961" y="206.4037777353078" />
<node id="2572535787" x="632.0354938488454" y="279.75670047383755" />
<node id="2572535788" x="718.2286787810735" y="257.1333334213123" />
<node id="2572535789" x="600.3752968123881" y="266.09475312009454" />
<node id="2572535790" x="626.7577137094922" y="259.3277408964932" />
<node id="2572535791" x="699.8098688505124" y="240.92581932386383" />
<node id="2572535792" x="622.0018594494322" y="240.90057657985017" />
<node id="2572535793" x="681.9879648290807" y="225.24513049330562" />
<node id="2572535794" x="617.5281924807932" y="223.5743574188091" />
<node id="2572535795" x="666.1150001620408" y="211.2793744308874" />
<node id="2572535796" x="970.8334469238762" y="-162.39579777047038" />
<node id="2572535797" x="1036.185715275933" y="-237.59393643541262" />
<node id="2572535798" x="931.7452271566726" y="-117.13134158402681" />