<edges>
<edge from="65381218" to="689482700" id="65381218to689482700" numLanes="1" shape="-179.73810538242105,378.93855077493936 -164.74980655533727,389.9879367966205" />
<edge from="65381218" to="847442370" id="65381218to847442370" numLanes="1" shape="-179.73810538242105,378.93855077493936 -172.48258964903653,368.8167710187845 -157.29893526050728,348.55694637820125 -157.29893526050728,348.55694637820125" />
<edge from="65381218" to="65381219" id="65381218to65381219" numLanes="1" shape="-179.73810538242105,378.93855077493936 -179.73810538242105,378.93855077493936 -183.08254069765098,382.97006742749363 -194.85064981947653,397.1575035797432" />
<edge from="65381218" to="65644358" id="65381218to65644358" numLanes="1" shape="-179.73810538242105,378.93855077493936 -179.73810538242105,378.93855077493936 -184.0507257762365,375.33909595711157 -195.4468119890662,359.2396305957809 -218.5003555289004,311.4384681265801 -225.47041632293258,295.07831578189507 -230.33825230924413,284.1622144174762 -233.11255370709114,274.6403000121936 -233.81699434667826,272.23753568483517 -234.29286989942193,270.00320610636845 -242.83192377339583,238.8392764297314 -249.82754518906586,207.2228934923187 -252.17118268541526,194.99751309491694" />
<edge from="65381219" to="65644370" id="65381219to65644370" numLanes="1" shape="-194.85064981947653,397.1575035797432 -219.56503756029997,369.2467259611003 -225.56934078084305,359.7963215196505 -231.35848425421864,348.00670166220516 -242.65078617911786,323.08745354320854 -255.1937182227848,286.40733528742567 -255.68690356228035,284.1284739924595 -256.4737881766632,281.0370802283287 -257.6397302617552,276.7773560024798 -258.64971189852804,269.8672240343876 -259.07729832665063,257.08169313520193 -259.1696531679481,228.26640059892088 -259.6776203981135,211.5302406558767 -259.8122538733296,208.72195030748844 -261.7606997162802,196.83289752248675 -261.7606997162802,196.83289752248675" />
<edge from="65381219" to="65381218" id="65381219to65381218" numLanes="1" shape="-194.85064981947653,397.1575035797432 -183.08254069765098,382.97006742749363 -179.73810538242105,378.93855077493936 -179.73810538242105,378.93855077493936" />
<edge from="65381219" to="522263513" id="65381219to522263513" numLanes="1" shape="-194.85064981947653,397.1575035797432 -181.6628016155446,409.71111150085926" />
<edge from="65381219" to="5326408966" id="65381219to5326408966" numLanes="1" shape="-194.85064981947653,397.1575035797432 -200.63386686122976,403.8526819390245" />
<edge from="65384635" to="65384636" id="65384635to65384636" numLanes="1" shape="398.7657941885991,1255.032063812483 412.2220033252379,1241.0157311153598 416.44373907893896,1236.8146913023666 418.40815638541244,1234.7683521453291 422.65220779785886,1230.0460322462022 422.65220779785886,1230.0460322462022" />
<edge from="65384635" to="1429242827" id="65384635to1429242827" numLanes="1" shape="398.7657941885991,1255.032063812483 407.7478272753069,1239.7556338775903 410.7606753987493,1233.2027737656608 412.1410333357053,1228.1777129112743 412.1410333357053,1228.1777129112743" />
<edge from="65384636" to="65384635" id="65384636to65384635" numLanes="1" shape="422.65220779785886,1230.0460322462022 422.65220779785886,1230.0460322462022 418.40815638541244,1234.7683521453291 416.44373907893896,1236.8146913023666 412.2220033252379,1241.0157311153598 398.7657941885991,1255.032063812483" />
<edge from="65384636" to="621397382" id="65384636to621397382" numLanes="1" shape="422.65220779785886,1230.0460322462022 419.6416453020647,1224.3496596859768" />
<edge from="65384636" to="305587317" id="65384636to305587317" numLanes="1" shape="422.65220779785886,1230.0460322462022 434.0365382885793,1217.2318747690879" />
<edge from="65392047" to="2572379123" id="65392047to2572379123" numLanes="1" shape="662.6964812654769,-455.00267041567713 672.6028421793599,-483.44075970491394" />
<edge from="65392047" to="5417696255" id="65392047to5417696255" numLanes="1" shape="662.6964812654769,-455.00267041567713 660.5864845833275,-445.5792926857248 657.259078447707,-439.56188833806664 649.1361809169175,-437.58136618416756 628.0487155338051,-432.4538780115545 602.4626473523676,-439.89285365119576 565.7109669575002,-430.5215096450411 555.5375513124745,-427.8045976944268 555.5375513124745,-427.8045976944268" />
<edge from="65422311" to="65565059" id="65422311to65565059" numLanes="1" shape="-1118.143068030011,-218.1068204967305 -1096.5019369355869,-223.00088596716523" />
<edge from="65422311" to="65565057" id="65422311to65565057" numLanes="1" shape="-1118.143068030011,-218.1068204967305 -1146.4318200142588,-212.91523779463023 -1173.9915802825708,-209.13744076807052 -1212.3588563747471,-203.8997574322857 -1222.5182954628253,-201.6687669591047 -1225.8168899524026,-199.83330661430955 -1225.8168899524026,-199.83330661430955" />
<edge from="65427080" to="340316006" id="65427080to340316006" numLanes="1" shape="243.0639600114664,-93.63800869882107 229.3540508124279,-84.16160702612251 220.65686505986378,-69.19314446114004 205.12793972156942,-47.095207328442484 168.6516301173251,-6.497543431818485 162.03974290401675,-4.225847735069692 159.0565665360773,11.980272425804287 155.56515874294564,25.618896161671728 149.95648351009004,41.55776872811839 145.6084547919454,49.99623972456902 142.22307949874084,59.64149410231039 141.05955160339363,64.158119100146 140.94167570048012,68.49534404883161 145.8640570420539,87.23433842789382 146.92859008035157,91.9370400425978 146.92859008035157,91.9370400425978" />
<edge from="65427080" to="275515717" id="65427080to275515717" numLanes="1" shape="243.0639600114664,-93.63800869882107 247.60937192826532,-76.31138807116076 260.45542923151515,-27.04573938064277 263.85665572353173,-14.42252646619454 266.9008798280265,-3.455665755085647 270.23130648280494,9.166925349738449 270.23130648280494,9.166925349738449" />
<edge from="65427080" to="256568484" id="65427080to256568484" numLanes="1" shape="243.0639600114664,-93.63800869882107 213.70000923471525,-202.28724224772304 209.7265848533716,-217.26768114697188 208.95319539716002,-222.87763392645866 206.9586556648137,-230.48442185809836 199.37541182071436,-259.54336042841896 185.89333566720597,-311.02245571184903 181.57890878990293,-327.4815593427047 174.85090131592005,-353.20433312188834 173.91032684326638,-356.9184591220692 171.58249464968685,-365.87070633424446 169.19507075706497,-375.0897653908469 166.92446609097533,-383.50893176859245 166.92446609097533,-383.50893176859245" />
<edge from="65427081" to="65427082" id="65427081to65427082" numLanes="1" shape="282.5423658718355,56.86345667671412 312.63054457702674,173.45256878435612 314.57258090225514,180.97016479820013 314.57258090225514,180.97016479820013" />
<edge from="65427081" to="4295505299" id="65427081to4295505299" numLanes="1" shape="282.5423658718355,56.86345667671412 279.81316417909693,46.298802277538925 276.4168896819465,33.12085879640654 276.4168896819465,33.12085879640654" />
<edge from="65427081" to="340316006" id="65427081to340316006" numLanes="1" shape="282.5423658718355,56.86345667671412 272.7429932494415,59.38428803347051 192.6630298201926,80.01357876928523 152.4271429348737,90.48766338266432 146.92859008035157,91.9370400425978 146.92859008035157,91.9370400425978" />
<edge from="65427082" to="65427081" id="65427082to65427081" numLanes="1" shape="314.57258090225514,180.97016479820013 314.57258090225514,180.97016479820013 312.63054457702674,173.45256878435612 282.5423658718355,56.86345667671412" />
<edge from="65427082" to="2572526644" id="65427082to2572526644" numLanes="1" shape="314.57258090225514,180.97016479820013 306.05972106719855,183.10289414832368 291.97805963200517,186.62881513871253 291.97805963200517,186.62881513871253" />
<edge from="65427082" to="65427084" id="65427082to65427084" numLanes="1" shape="314.57258090225514,180.97016479820013 315.642006770242,185.10707347746938 347.6284131614957,309.04713981132954 348.2615147817414,311.49370784824714 349.39939583814703,319.89182923641056 349.39939583814703,319.89182923641056" />
<edge from="65427084" to="65427082" id="65427084to65427082" numLanes="1" shape="349.39939583814703,319.89182923641056 349.39939583814703,319.89182923641056 348.2615147817414,311.49370784824714 347.6284131614957,309.04713981132954 315.642006770242,185.10707347746938 314.57258090225514,180.97016479820013" />
<edge from="65427084" to="689487292" id="65427084to689487292" numLanes="1" shape="349.39939583814703,319.89182923641056 356.6265538892476,312.0558785200119 448.34574535675347,211.80029921699315 448.34574535675347,211.80029921699315" />
<edge from="65427084" to="338518144" id="65427084to338518144" numLanes="1" shape="349.39939583814703,319.89182923641056 351.4819835079834,330.51736867567524 354.2997716316022,342.0481315762736 356.3692803635495,353.15065584424883 356.3692803635495,353.15065584424883" />
<edge from="65427084" to="518816373" id="65427084to518816373" numLanes="1" shape="349.39939583814703,319.89182923641056 349.39939583814703,319.89182923641056 342.5791010452667,326.7439005030319 270.02797990408726,406.7989102178253 259.48528024880216,416.3919930369593 252.09051688143518,421.1864283224568 243.17692331480794,425.64569326350465 233.71930278476793,428.5912011829205" />
<edge from="65458552" to="4913257332" id="65458552to4913257332" numLanes="1" shape="-54.95827060274314,-649.5085208630189 -75.26754851185251,-644.3280313615687 -127.58679339941591,-629.6315707266331 -188.7972973336,-614.1030074204318 -188.7972973336,-614.1030074204318" />
<edge from="65461960" to="1758054039" id="65461960to1758054039" numLanes="1" shape="-432.25267864810303,-20.375081803184003 -426.08953632670455,-21.941072850488126" />
<edge from="65461960" to="275516062" id="65461960to275516062" numLanes="1" shape="-432.25267864810303,-20.375081803184003 -439.40961898164824,-47.82085506943986" />
<edge from="65461960" to="65682860" id="65461960to65682860" numLanes="1" shape="-432.25267864810303,-20.375081803184003 -429.9756484796526,-11.623170972801745" />
<edge from="65461960" to="1758054040" id="65461960to1758054040" numLanes="1" shape="-432.25267864810303,-20.375081803184003 -432.25267864810303,-20.375081803184003 -443.3697850200115,-17.909321767278016 -453.399038263713,-15.38965162774548 -468.6121812557103,-11.983296163380146 -493.6335930484347,-8.05241440050304 -501.410747485701,-7.0774357677437365" />
<edge from="65473412" to="6239344442" id="65473412to6239344442" numLanes="1" shape="134.53776487638243,95.35609048977494 136.38989942485932,102.05179458158091" />
<edge from="65473412" to="340316006" id="65473412to340316006" numLanes="1" shape="134.53776487638243,95.35609048977494 146.92859008035157,91.9370400425978" />
<edge from="65473412" to="354784526" id="65473412to354784526" numLanes="1" shape="134.53776487638243,95.35609048977494 122.19314285926521,98.55366031313315" />
<edge from="65473412" to="847423929" id="65473412to847423929" numLanes="1" shape="134.53776487638243,95.35609048977494 130.5173459892394,88.71893753297627 128.15920646348968,79.2005666331388 125.01945439062547,72.02751085627824 119.97746262024157,65.84736075485125 106.41961958585307,52.09173106588423 94.34711429208983,42.47666599182412 76.49135391507298,25.44338774587959 76.49135391507298,25.44338774587959" />
<edge from="65473421" to="1256091855" id="65473421to1256091855" numLanes="1" shape="494.540359291248,-129.71488195983693 486.851530854241,-127.75255404785275 422.2372284018202,-111.27119115879759 422.2372284018202,-111.27119115879759" />
<edge from="65473421" to="3994962569" id="65473421to3994962569" numLanes="1" shape="494.540359291248,-129.71488195983693 496.72218062810134,-121.30749544547871 497.9030400663614,-116.77014557085931 505.7313605097588,-86.54372169962153 515.4424563512439,-49.12193385651335 527.754087754176,-1.6358194472268224 529.2171408857685,4.0024741240777075 544.2664220584556,62.042344194836915 544.2664220584556,62.042344194836915" />
<edge from="65473421" to="5774153159" id="65473421to5774153159" numLanes="1" shape="494.540359291248,-129.71488195983693 492.17037342116237,-138.85622528474778 486.60037376591936,-160.33061645179987 470.2496109929634,-223.37475926615298 470.2496109929634,-223.37475926615298" />
<edge from="65476295" to="689504503" id="65476295to689504503" numLanes="1" shape="275.5333141279407,1195.5918037593365 208.24118130339775,1260.0604220773093 187.40658303769305,1275.1436699433252 181.88892034511082,1278.8451905329712 170.12803035939578,1283.2571966112591 170.12803035939578,1283.2571966112591" />
<edge from="65476295" to="522258539" id="65476295to522258539" numLanes="1" shape="275.5333141279407,1195.5918037593365 281.60611597367097,1187.1464485782199 294.51853048510384,1170.584293353837 304.93467936327215,1153.1901302109472 311.4401655383408,1141.8416446838528 323.2030254196143,1127.2332421061583 339.1200023207348,1111.0749624529853 360.2099739696132,1097.2037313394248 378.66762928816024,1089.8776941248216 380.29228989756666,1089.237446330022 380.29228989756666,1089.237446330022" />
<edge from="65476295" to="3316594151" id="65476295to3316594151" numLanes="1" shape="275.5333141279407,1195.5918037593365 270.5376435845392,1189.2677030586638 265.8901504671667,1184.5887905773707 265.8901504671667,1184.5887905773707" />
<edge from="65476297" to="65562625" id="65476297to65562625" numLanes="1" shape="390.02827981079463,1086.749490457587 409.8216592078097,1164.3922991603613" />
<edge from="65476297" to="522258539" id="65476297to522258539" numLanes="1" shape="390.02827981079463,1086.749490457587 380.29228989756666,1089.237446330022" />
<edge from="65476297" to="4820803735" id="65476297to4820803735" numLanes="1" shape="390.02827981079463,1086.749490457587 341.33095163095277,899.0960904033855 324.46877530787606,832.9963692128658 323.97284196014516,831.0503025976941 323.97284196014516,831.0503025976941" />
<edge from="65480714" to="5060846131" id="65480714to5060846131" numLanes="1" shape="-247.19544316781685,-828.454624527134 -237.91116595070343,-824.6119118733332 -235.4689447073033,-823.5919193723239 -224.8710509603843,-819.1940029803663 -224.8710509603843,-819.1940029803663" />
<edge from="65480714" to="5060846134" id="65480714to5060846134" numLanes="1" shape="-247.19544316781685,-828.454624527134 -250.83902741980273,-820.6311157359742 -251.93748745694757,-818.477167842444 -259.18487947795074,-797.2710619717836 -265.00020301516633,-766.8100294959731 -265.3554288302548,-752.5335206524469 -263.9063962305663,-739.1621024957858 -261.70410560804885,-725.9172232956626 -261.70410560804885,-725.9172232956626" />
<edge from="65480714" to="1782352105" id="65480714to1782352105" numLanes="1" shape="-247.19544316781685,-828.454624527134 -240.99650039279368,-844.1222756523639 -237.09965314134024,-860.642256741412 -236.52420879993588,-862.689836638514 -235.3717571074376,-867.9721772666089 -235.3717571074376,-867.9721772666089" />
<edge from="65484362" to="2572535789" id="65484362to2572535789" numLanes="1" shape="619.4996511249337,340.3923313245177 616.0393732145894,326.52574963495135 608.9308390662773,298.03644207911566 600.3752968123881,266.09475312009454 600.3752968123881,266.09475312009454" />
<edge from="65484362" to="6477378136" id="65484362to6477378136" numLanes="1" shape="619.4996511249337,340.3923313245177 624.2666602110257,364.5336900022812 626.7447385556297,381.3983912798576 628.1017634740565,393.98144181771204 629.328163553495,405.3317521093413 629.328163553495,405.3317521093413" />
<edge from="65484362" to="3997329598" id="65484362to3997329598" numLanes="1" shape="619.4996511249337,340.3923313245177 607.3968131574802,343.28065698593855 602.5379862870323,344.43583512539044 584.4652613810031,347.06041004974395 568.5831669782056,351.0913690403104 561.6279009166174,351.1961113922298 561.6279009166174,351.1961113922298" />
<edge from="65484362" to="689512055" id="65484362to689512055" numLanes="1" shape="619.4996511249337,340.3923313245177 629.6541878000135,336.71005519479513 636.5599660655716,334.20833959802985 673.4373428532854,321.2768920874223 741.3540086682187,296.28348744055256 747.0882869607303,294.1930696545169 747.0882869607303,294.1930696545169" />
<edge from="65501977" to="65658657" id="65501977to65658657" numLanes="1" shape="-280.379938667058,-586.0585065633059 -266.8274505351437,-589.6677207932808 -247.44777193118352,-594.8235369347967 -234.79999385378323,-598.1854416681454 -233.1476386913564,-598.9254286112264 -226.25137916393578,-602.304477868136 -226.25137916393578,-602.304477868136" />
<edge from="65501977" to="314065986" id="65501977to314065986" numLanes="1" shape="-280.379938667058,-586.0585065633059 -311.9711204551859,-577.8363629751839 -329.73415616177954,-573.3763361712918 -335.9423511013156,-571.7664210610092 -338.64595450495835,-571.2242409023456 -345.374916307861,-569.7631184258498 -345.374916307861,-569.7631184258498" />
<edge from="65501977" to="288005655" id="65501977to288005655" numLanes="1" shape="-280.379938667058,-586.0585065633059 -280.379938667058,-586.0585065633059 -281.66688472707756,-592.6825738870539 -282.4253850232344,-593.9762745937333 -326.4547343853628,-678.0426580011845" />
<edge from="65510924" to="2572379155" id="65510924to2572379155" numLanes="1" shape="268.2551071451744,-956.3857174487785 264.48220634413883,-948.0087996697985 259.4775206547929,-939.431945014745 259.4775206547929,-939.431945014745" />
<edge from="65510924" to="65556603" id="65510924to65556603" numLanes="1" shape="268.2551071451744,-956.3857174487785 249.1127029558411,-970.2241178723052 228.37221114628483,-986.4842536803335 224.98303584801033,-989.4987952369265 213.92009536304977,-999.3602677807212 211.22455677052494,-1001.7584424358793 202.11953140958212,-1009.8717587776482 200.40108048031107,-1011.6843550684862 191.12009860645048,-1020.9198350645602 191.12009860645048,-1020.9198350645602" />
<edge from="65510924" to="8910620729" id="65510924to8910620729" numLanes="1" shape="268.2551071451744,-956.3857174487785 279.209927004762,-951.3293856112286 310.20212297840044,-934.5902162212878 310.20212297840044,-934.5902162212878" />
<edge from="65510924" to="65511047" id="65510924to65511047" numLanes="1" shape="268.2551071451744,-956.3857174487785 268.2551071451744,-956.3857174487785 277.35736455465667,-947.9727769033052 314.91891354788095,-923.597487734165 365.0629057630431,-891.133266360499" />
<edge from="65511047" to="2392411733" id="65511047to2392411733" numLanes="1" shape="365.0629057630431,-891.133266360499 360.6283458438702,-883.9938175436109 359.86573933868203,-882.8133631474338 336.60434428218286,-846.0827469532378 336.60434428218286,-846.0827469532378" />
<edge from="65511047" to="65510924" id="65511047to65510924" numLanes="1" shape="365.0629057630431,-891.133266360499 314.91891354788095,-923.597487734165 277.35736455465667,-947.9727769033052 268.2551071451744,-956.3857174487785 268.2551071451744,-956.3857174487785" />
<edge from="65511047" to="65556607" id="65511047to65556607" numLanes="1" shape="365.0629057630431,-891.133266360499 365.0629057630431,-891.133266360499 405.6569679949898,-866.5088353268802 418.68604200321715,-860.8791996804066" />
<edge from="65511122" to="65511125" id="65511122to65511125" numLanes="1" shape="594.7932027609786,-888.0892430511303 590.7119148042984,-898.8545975722373" />
<edge from="65511122" to="65539580" id="65511122to65539580" numLanes="1" shape="594.7932027609786,-888.0892430511303 590.220546191209,-886.3545489464886 584.3871921349782,-884.1539342189208 534.7754455578979,-863.7456684913486 518.07291843032,-857.2586800931022 504.3555469023995,-852.1099375733174 490.3005707592238,-848.8059828393161 487.8897956344299,-848.3724268055521 481.458144600736,-847.5528572802432 481.458144600736,-847.5528572802432" />
<edge from="65511122" to="65556654" id="65511122to65556654" numLanes="1" shape="594.7932027609786,-888.0892430511303 594.7932027609786,-888.0892430511303 602.6782138291746,-891.1370861348696 605.1556704326067,-892.1025924864225 616.4217562783742,-895.2313836668618 630.4901434977073,-899.034298480954 643.352392465109,-901.5386484283954" />
<edge from="65511125" to="65511122" id="65511125to65511122" numLanes="1" shape="590.7119148042984,-898.8545975722373 594.7932027609786,-888.0892430511303" />
<edge from="65511125" to="4192544209" id="65511125to4192544209" numLanes="1" shape="590.7119148042984,-898.8545975722373 598.5603599341121,-901.7696253564209 606.3748933111783,-904.851376239676 612.8621633888688,-906.9463172396645 620.698330752668,-909.4730978263542 639.5264959010528,-913.1560997837223 651.2960827486822,-915.1819413197227 664.8269856699044,-916.2490296219476 687.0744434553199,-916.3399766548537 703.6339329448529,-915.6603349191137 723.0794342583977,-913.1242944761179 743.8098646770231,-908.8015402103774 765.5234759857412,-902.5948867886327 778.123640269856,-897.5121687138453 784.896088772919,-893.8570712464862 790.5320539840031,-891.7654178128578 794.26929635345,-891.0997504866682 800.3356040343642,-889.6366958972067 800.3356040343642,-889.6366958972067" />
<edge from="65511125" to="4742673737" id="65511125to4742673737" numLanes="1" shape="590.7119148042984,-898.8545975722373 590.7119148042984,-898.8545975722373 583.2387476103613,-896.3467608592473 567.6051959673641,-889.6728651346639 554.391703105648,-884.4753545532003 529.0788748788182,-873.9816364306025 512.4730743755354,-867.4272076087072 506.73924925993197,-865.4697541939095 487.54013858537655,-857.8509099981748 481.2950934476685,-855.1212959159166" />
<edge from="65511794" to="3406437907" id="65511794to3406437907" numLanes="1" shape="-674.0577625957085,-633.9363958514296 -648.5546023346251,-639.1285165273584" />
<edge from="65511794" to="1782366277" id="65511794to1782366277" numLanes="1" shape="-674.0577625957085,-633.9363958514296 -673.8982760766521,-681.6668441705406 -674.1774012182141,-683.1449479437433 -675.5557190970285,-690.4909346345812 -679.0481190178543,-698.942685783375 -682.331797168008,-705.9613265492953 -689.5837178931106,-716.5872282981873 -684.4289062623866,-728.3032804448158 -697.8534547071904,-736.331205682829 -702.03734775458,-737.532668587286 -706.5251231730217,-737.3720597312786 -758.0913511825493,-727.7800149675459 -818.9677905705757,-713.9636984299868 -882.881418388919,-700.9056308520958 -939.4504151402507,-686.8179997303523 -956.7518621461932,-682.5079655540176 -956.7518621461932,-682.5079655540176" />
<edge from="65511794" to="65565228" id="65511794to65565228" numLanes="1" shape="-674.0577625957085,-633.9363958514296 -675.5295485402457,-543.267599819228 -674.8999505793909,-512.9720260798931 -674.751520175254,-511.7280618753284 -675.1220745213795,-509.8229060238227 -674.1007588973735,-501.1153107266873 -674.1007588973735,-501.1153107266873" />
<edge from="65525278" to="65565064" id="65525278to65565064" numLanes="1" shape="-892.3482333247084,-424.161133996211 -861.2568915495649,-283.46913194376975" />
<edge from="65525278" to="65525280" id="65525278to65525280" numLanes="1" shape="-892.3482333247084,-424.161133996211 -887.6912442941684,-425.4853706564754 -707.1618613895262,-476.4391222591512 -692.6925645610318,-479.6970775737427 -681.875130961882,-481.2226952658966 -678.8983596948674,-481.64055616175756 -678.8983596948674,-481.64055616175756" />
<edge from="65525278" to="65658619" id="65525278to65658619" numLanes="1" shape="-892.3482333247084,-424.161133996211 -902.1916781504406,-441.02272832626477 -903.0553727067309,-442.43933311337605 -906.9233567670453,-450.45044276397675 -906.9233567670453,-450.45044276397675" />
<edge from="65525280" to="65525278" id="65525280to65525278" numLanes="1" shape="-678.8983596948674,-481.64055616175756 -678.8983596948674,-481.64055616175756 -681.875130961882,-481.2226952658966 -692.6925645610318,-479.6970775737427 -707.1618613895262,-476.4391222591512 -887.6912442941684,-425.4853706564754 -892.3482333247084,-424.161133996211" />
<edge from="65525280" to="65565068" id="65525280to65565068" numLanes="1" shape="-678.8983596948674,-481.64055616175756 -673.5860084949527,-468.81249205907807 -677.648557301145,-373.28434074437246 -676.319139570347,-343.08251525787637 -676.9308831056114,-327.720896249637 -681.0225435873726,-313.088617247995 -681.0225435873726,-313.088617247995" />
<edge from="65525280" to="65565228" id="65525280to65565228" numLanes="1" shape="-678.8983596948674,-481.64055616175756 -676.871202246868,-489.85557413706556 -674.1007588973735,-501.1153107266873 -674.1007588973735,-501.1153107266873" />
<edge from="65528782" to="6459925109" id="65528782to6459925109" numLanes="1" shape="-1008.7895807116292,-552.2242704816163 -1013.6967695659259,-550.6247548889369" />
<edge from="65528782" to="6282025812" id="65528782to6282025812" numLanes="1" shape="-1008.7895807116292,-552.2242704816163 -998.7752131028101,-522.3909716382623 -999.1609395473497,-515.6705923220143 -999.1609395473497,-515.6705923220143" />
<edge from="65528782" to="6282025811" id="65528782to6282025811" numLanes="1" shape="-1008.7895807116292,-552.2242704816163 -1008.7895807116292,-552.2242704816163 -1012.2461597012589,-563.8155245920643 -1017.2194480804028,-583.1533317589201 -1020.204570754664,-586.8739532553591" />
<edge from="65539580" to="65511122" id="65539580to65511122" numLanes="1" shape="481.458144600736,-847.5528572802432 481.458144600736,-847.5528572802432 487.8897956344299,-848.3724268055521 490.3005707592238,-848.8059828393161 504.3555469023995,-852.1099375733174 518.07291843032,-857.2586800931022 534.7754455578979,-863.7456684913486 584.3871921349782,-884.1539342189208 590.220546191209,-886.3545489464886 594.7932027609786,-888.0892430511303" />
<edge from="65539580" to="4742673737" id="65539580to4742673737" numLanes="1" shape="481.458144600736,-847.5528572802432 481.2950934476685,-855.1212959159166" />
<edge from="65539580" to="256558438" id="65539580to256558438" numLanes="1" shape="481.458144600736,-847.5528572802432 481.5323366613593,-836.9450931521133 481.37554081343114,-834.2281330861151 479.31129989400506,-789.9872584096156 479.2245975905098,-788.1905874223448 480.0865732913371,-778.6077090571634 480.0865732913371,-778.6077090571634" />
<edge from="65539580" to="65556607" id="65539580to65556607" numLanes="1" shape="481.458144600736,-847.5528572802432 470.08135145611595,-847.8976955087855 466.8084510244662,-848.0376271987334 455.95252111076843,-849.2432677811012 445.353965419461,-851.5339553589001 433.7810935762245,-854.7208759300411 418.68604200321715,-860.8791996804066 418.68604200321715,-860.8791996804066" />
<edge from="65539585" to="6917973013" id="65539585to6917973013" numLanes="1" shape="504.16459901072085,-690.7082670740783 488.7935931077227,-749.5940501657315" />
<edge from="65539585" to="5555812015" id="65539585to5555812015" numLanes="1" shape="504.16459901072085,-690.7082670740783 450.2090060901828,-677.2503786096349" />
<edge from="65539585" to="340333268" id="65539585to340333268" numLanes="1" shape="504.16459901072085,-690.7082670740783 504.39544783032034,-686.8006751104258 504.7251053703949,-681.0614826427773 506.3662586947903,-673.5354227875359 506.84171071567107,-668.2720365258865 505.4981970755616,-656.4563446855173 506.3521518643247,-650.967698995024 508.65267715859227,-643.9572759019211 511.32364095083904,-635.8118488821201 514.0004948818823,-630.329241797328 516.9755262695253,-624.5444184588268 516.9755262695253,-624.5444184588268" />
<edge from="65539592" to="5417696255" id="65539592to5417696255" numLanes="1" shape="545.6966441320255,-459.60223303409293 549.351286046207,-448.64095608051866 555.5375513124745,-427.8045976944268 555.5375513124745,-427.8045976944268" />
<edge from="65539592" to="354801007" id="65539592to354801007" numLanes="1" shape="545.6966441320255,-459.60223303409293 547.670643738471,-467.67321448307484 542.2794561211485,-486.3722178139724 542.4694485142827,-506.8080914551392 541.4233813638566,-529.5516494256444 537.9753450799035,-542.8632943597622 533.8451083950931,-552.0868153083138 532.7859039886389,-553.3832583902404 525.021968849469,-567.9536298313178 519.8382940259762,-583.1224667676724 518.4505228865892,-590.2801407701336 515.1773199415766,-602.358645465225 515.1773199415766,-602.358645465225" />
<edge from="65539592" to="65543924" id="65539592to65543924" numLanes="1" shape="545.6966441320255,-459.60223303409293 453.4189174588537,-436.12099895998836 430.167007807293,-430.3686485597864 426.380417131586,-429.43687026109546 416.1005212116288,-423.680618094746 410.1996541998815,-409.8082249891013 378.12933120981324,-401.44869251269847 335.3452797012869,-390.2878747265786 313.1642724580597,-384.53683181433007 295.59455907170195,-379.92109425365925 275.0985176307149,-374.58778166631237 274.3002534772968,-374.3729261145927 236.41213916009292,-364.48870435124263 236.41213916009292,-364.48870435124263" />
<edge from="65543380" to="847469519" id="65543380to847469519" numLanes="1" shape="1001.4227217263542,292.79673364572227 1042.764212490525,329.96889386465773" />
<edge from="65543380" to="2572535777" id="65543380to2572535777" numLanes="1" shape="1001.4227217263542,292.79673364572227 892.4527926733717,195.4623292181641" />
<edge from="65543380" to="2572535780" id="65543380to2572535780" numLanes="1" shape="1001.4227217263542,292.79673364572227 1012.819685582188,278.8073398503475" />
<edge from="65543380" to="847469490" id="65543380to847469490" numLanes="1" shape="1001.4227217263542,292.79673364572227 993.1398884564405,291.9461703328416 978.6870580788236,289.45395226590335 967.1018932482693,284.86812146846205 967.1018932482693,284.86812146846205" />