<connections>
<connection from="689482700to65381218" to="65381218to689482700" />
<connection from="689482700to65381218" to="65381218to847442370" />
<connection from="689482700to65381218" to="65381218to65381219" />
<connection from="689482700to65381218" to="65381218to65644358" />
<connection from="847442370to65381218" to="65381218to689482700" />
<connection from="847442370to65381218" to="65381218to847442370" />
<connection from="847442370to65381218" to="65381218to65381219" />
<connection from="847442370to65381218" to="65381218to65644358" />
<connection from="65381219to65381218" to="65381218to689482700" />
<connection from="65381219to65381218" to="65381218to847442370" />
<connection from="65381219to65381218" to="65381218to65381219" />
<connection from="65381219to65381218" to="65381218to65644358" />
<connection from="65644358to65381218" to="65381218to689482700" />
<connection from="65644358to65381218" to="65381218to847442370" />
<connection from="65644358to65381218" to="65381218to65381219" />
<connection from="65644358to65381218" to="65381218to65644358" />
<connection from="65644370to65381219" to="65381219to65644370" />
<connection from="65644370to65381219" to="65381219to65381218" />
<connection from="65644370to65381219" to="65381219to522263513" />
<connection from="65644370to65381219" to="65381219to5326408966" />
<connection from="65381218to65381219" to="65381219to65644370" />
<connection from="65381218to65381219" to="65381219to65381218" />
<connection from="65381218to65381219" to="65381219to522263513" />
<connection from="65381218to65381219" to="65381219to5326408966" />
<connection from="522263513to65381219" to="65381219to65644370" />
<connection from="522263513to65381219" to="65381219to65381218" />
<connection from="522263513to65381219" to="65381219to522263513" />
<connection from="522263513to65381219" to="65381219to5326408966" />
<connection from="5326408966to65381219" to="65381219to65644370" />
<connection from="5326408966to65381219" to="65381219to65381218" />
<connection from="5326408966to65381219" to="65381219to522263513" />
<connection from="5326408966to65381219" to="65381219to5326408966" />
<connection from="65384636to65384635" to="65384635to65384636" />
<connection from="65384636to65384635" to="65384635to1429242827" />
<connection from="1429242827to65384635" to="65384635to65384636" />
<connection from="1429242827to65384635" to="65384635to1429242827" />
<connection from="65384635to65384636" to="65384636to65384635" />
<connection from="65384635to65384636" to="65384636to621397382" />
<connection from="65384635to65384636" to="65384636to305587317" />
<connection from="621397382to65384636" to="65384636to65384635" />
<connection from="621397382to65384636" to="65384636to621397382" />
<connection from="621397382to65384636" to="65384636to305587317" />
<connection from="305587317to65384636" to="65384636to65384635" />
<connection from="305587317to65384636" to="65384636to621397382" />
<connection from="305587317to65384636" to="65384636to305587317" />
<connection from="2572379123to65392047" to="65392047to2572379123" />
<connection from="2572379123to65392047" to="65392047to5417696255" />
<connection from="5417696255to65392047" to="65392047to2572379123" />
<connection from="5417696255to65392047" to="65392047to5417696255" />
<connection from="65565059to65422311" to="65422311to65565059" />
<connection from="65565059to65422311" to="65422311to65565057" />
<connection from="65565057to65422311" to="65422311to65565059" />
<connection from="65565057to65422311" to="65422311to65565057" />
<connection from="340316006to65427080" to="65427080to340316006" />
<connection from="340316006to65427080" to="65427080to275515717" />
<connection from="340316006to65427080" to="65427080to256568484" />
<connection from="275515717to65427080" to="65427080to340316006" />
<connection from="275515717to65427080" to="65427080to275515717" />
<connection from="275515717to65427080" to="65427080to256568484" />
<connection from="256568484to65427080" to="65427080to340316006" />
<connection from="256568484to65427080" to="65427080to275515717" />
<connection from="256568484to65427080" to="65427080to256568484" />
<connection from="65427082to65427081" to="65427081to65427082" />
<connection from="65427082to65427081" to="65427081to4295505299" />
<connection from="65427082to65427081" to="65427081to340316006" />
<connection from="4295505299to65427081" to="65427081to65427082" />
<connection from="4295505299to65427081" to="65427081to4295505299" />
<connection from="4295505299to65427081" to="65427081to340316006" />
<connection from="340316006to65427081" to="65427081to65427082" />
<connection from="340316006to65427081" to="65427081to4295505299" />
<connection from="340316006to65427081" to="65427081to340316006" />
<connection from="65427081to65427082" to="65427082to65427081" />
<connection from="65427081to65427082" to="65427082to2572526644" />
<connection from="65427081to65427082" to="65427082to65427084" />
<connection from="2572526644to65427082" to="65427082to65427081" />
<connection from="2572526644to65427082" to="65427082to2572526644" />
<connection from="2572526644to65427082" to="65427082to65427084" />
<connection from="65427084to65427082" to="65427082to65427081" />
<connection from="65427084to65427082" to="65427082to2572526644" />
<connection from="65427084to65427082" to="65427082to65427084" />
<connection from="65427082to65427084" to="65427084to65427082" />
<connection from="65427082to65427084" to="65427084to689487292" />
<connection from="65427082to65427084" to="65427084to338518144" />
<connection from="65427082to65427084" to="65427084to518816373" />
<connection from="689487292to65427084" to="65427084to65427082" />
<connection from="689487292to65427084" to="65427084to689487292" />
<connection from="689487292to65427084" to="65427084to338518144" />
<connection from="689487292to65427084" to="65427084to518816373" />
<connection from="338518144to65427084" to="65427084to65427082" />
<connection from="338518144to65427084" to="65427084to689487292" />
<connection from="338518144to65427084" to="65427084to338518144" />
<connection from="338518144to65427084" to="65427084to518816373" />
<connection from="518816373to65427084" to="65427084to65427082" />
<connection from="518816373to65427084" to="65427084to689487292" />
<connection from="518816373to65427084" to="65427084to338518144" />
<connection from="518816373to65427084" to="65427084to518816373" />
<connection from="4913257332to65458552" to="65458552to4913257332" />
<connection from="1758054039to65461960" to="65461960to1758054039" />
<connection from="1758054039to65461960" to="65461960to275516062" />
<connection from="1758054039to65461960" to="65461960to65682860" />
<connection from="1758054039to65461960" to="65461960to1758054040" />
<connection from="275516062to65461960" to="65461960to1758054039" />
<connection from="275516062to65461960" to="65461960to275516062" />
<connection from="275516062to65461960" to="65461960to65682860" />
<connection from="275516062to65461960" to="65461960to1758054040" />
<connection from="65682860to65461960" to="65461960to1758054039" />
<connection from="65682860to65461960" to="65461960to275516062" />
<connection from="65682860to65461960" to="65461960to65682860" />
<connection from="65682860to65461960" to="65461960to1758054040" />
<connection from="1758054040to65461960" to="65461960to1758054039" />
<connection from="1758054040to65461960" to="65461960to275516062" />
<connection from="1758054040to65461960" to="65461960to65682860" />
<connection from="1758054040to65461960" to="65461960to1758054040" />
<connection from="6239344442to65473412" to="65473412to6239344442" />
<connection from="6239344442to65473412" to="65473412to340316006" />
<connection from="6239344442to65473412" to="65473412to354784526" />
<connection from="6239344442to65473412" to="65473412to847423929" />
<connection from="340316006to65473412" to="65473412to6239344442" />
<connection from="340316006to65473412" to="65473412to340316006" />
<connection from="340316006to65473412" to="65473412to354784526" />
<connection from="340316006to65473412" to="65473412to847423929" />
<connection from="354784526to65473412" to="65473412to6239344442" />
<connection from="354784526to65473412" to="65473412to340316006" />
<connection from="354784526to65473412" to="65473412to354784526" />
<connection from="354784526to65473412" to="65473412to847423929" />
<connection from="847423929to65473412" to="65473412to6239344442" />
<connection from="847423929to65473412" to="65473412to340316006" />
<connection from="847423929to65473412" to="65473412to354784526" />
<connection from="847423929to65473412" to="65473412to847423929" />
<connection from="1256091855to65473421" to="65473421to1256091855" />
<connection from="1256091855to65473421" to="65473421to3994962569" />
<connection from="1256091855to65473421" to="65473421to5774153159" />
<connection from="3994962569to65473421" to="65473421to1256091855" />
<connection from="3994962569to65473421" to="65473421to3994962569" />
<connection from="3994962569to65473421" to="65473421to5774153159" />
<connection from="5774153159to65473421" to="65473421to1256091855" />
<connection from="5774153159to65473421" to="65473421to3994962569" />
<connection from="5774153159to65473421" to="65473421to5774153159" />
<connection from="689504503to65476295" to="65476295to689504503" />
<connection from="689504503to65476295" to="65476295to522258539" />
<connection from="689504503to65476295" to="65476295to3316594151" />
<connection from="522258539to65476295" to="65476295to689504503" />
<connection from="522258539to65476295" to="65476295to522258539" />
<connection from="522258539to65476295" to="65476295to3316594151" />
<connection from="3316594151to65476295" to="65476295to689504503" />
<connection from="3316594151to65476295" to="65476295to522258539" />
<connection from="3316594151to65476295" to="65476295to3316594151" />
<connection from="65562625to65476297" to="65476297to65562625" />
<connection from="65562625to65476297" to="65476297to522258539" />
<connection from="65562625to65476297" to="65476297to4820803735" />
<connection from="522258539to65476297" to="65476297to65562625" />
<connection from="522258539to65476297" to="65476297to522258539" />
<connection from="522258539to65476297" to="65476297to4820803735" />
<connection from="4820803735to65476297" to="65476297to65562625" />
<connection from="4820803735to65476297" to="65476297to522258539" />
<connection from="4820803735to65476297" to="65476297to4820803735" />
<connection from="5060846131to65480714" to="65480714to5060846131" />
<connection from="5060846131to65480714" to="65480714to5060846134" />
<connection from="5060846131to65480714" to="65480714to1782352105" />
<connection from="5060846134to65480714" to="65480714to5060846131" />
<connection from="5060846134to65480714" to="65480714to5060846134" />
<connection from="5060846134to65480714" to="65480714to1782352105" />
<connection from="1782352105to65480714" to="65480714to5060846131" />
<connection from="1782352105to65480714" to="65480714to5060846134" />
<connection from="1782352105to65480714" to="65480714to1782352105" />
<connection from="2572535789to65484362" to="65484362to2572535789" />
<connection from="2572535789to65484362" to="65484362to6477378136" />
<connection from="2572535789to65484362" to="65484362to3997329598" />
<connection from="2572535789to65484362" to="65484362to689512055" />
<connection from="6477378136to65484362" to="65484362to2572535789" />
<connection from="6477378136to65484362" to="65484362to6477378136" />
<connection from="6477378136to65484362" to="65484362to3997329598" />
<connection from="6477378136to65484362" to="65484362to689512055" />
<connection from="3997329598to65484362" to="65484362to2572535789" />
<connection from="3997329598to65484362" to="65484362to6477378136" />
<connection from="3997329598to65484362" to="65484362to3997329598" />
<connection from="3997329598to65484362" to="65484362to689512055" />
<connection from="689512055to65484362" to="65484362to2572535789" />
<connection from="689512055to65484362" to="65484362to6477378136" />
<connection from="689512055to65484362" to="65484362to3997329598" />
<connection from="689512055to65484362" to="65484362to689512055" />
<connection from="65658657to65501977" to="65501977to65658657" />
<connection from="65658657to65501977" to="65501977to314065986" />
<connection from="65658657to65501977" to="65501977to288005655" />
<connection from="314065986to65501977" to="65501977to65658657" />
<connection from="314065986to65501977" to="65501977to314065986" />
<connection from="314065986to65501977" to="65501977to288005655" />
<connection from="288005655to65501977" to="65501977to65658657" />
<connection from="288005655to65501977" to="65501977to314065986" />
<connection from="288005655to65501977" to="65501977to288005655" />
<connection from="2572379155to65510924" to="65510924to2572379155" />
<connection from="2572379155to65510924" to="65510924to65556603" />
<connection from="2572379155to65510924" to="65510924to8910620729" />
<connection from="2572379155to65510924" to="65510924to65511047" />
<connection from="65556603to65510924" to="65510924to2572379155" />
<connection from="65556603to65510924" to="65510924to65556603" />
<connection from="65556603to65510924" to="65510924to8910620729" />
<connection from="65556603to65510924" to="65510924to65511047" />
<connection from="8910620729to65510924" to="65510924to2572379155" />
<connection from="8910620729to65510924" to="65510924to65556603" />
<connection from="8910620729to65510924" to="65510924to8910620729" />
<connection from="8910620729to65510924" to="65510924to65511047" />
<connection from="65511047to65510924" to="65510924to2572379155" />
<connection from="65511047to65510924" to="65510924to65556603" />
<connection from="65511047to65510924" to="65510924to8910620729" />
<connection from="65511047to65510924" to="65510924to65511047" />
<connection from="2392411733to65511047" to="65511047to2392411733" />
<connection from="2392411733to65511047" to="65511047to65510924" />
<connection from="2392411733to65511047" to="65511047to65556607" />
<connection from="65510924to65511047" to="65511047to2392411733" />
<connection from="65510924to65511047" to="65511047to65510924" />
<connection from="65510924to65511047" to="65511047to65556607" />
<connection from="65556607to65511047" to="65511047to2392411733" />
<connection from="65556607to65511047" to="65511047to65510924" />
<connection from="65556607to65511047" to="65511047to65556607" />
<connection from="65511125to65511122" to="65511122to65511125" />
<connection from="65511125to65511122" to="65511122to65539580" />
<connection from="65511125to65511122" to="65511122to65556654" />
<connection from="65539580to65511122" to="65511122to65511125" />
<connection from="65539580to65511122" to="65511122to65539580" />
<connection from="65539580to65511122" to="65511122to65556654" />
<connection from="65556654to65511122" to="65511122to65511125" />
<connection from="65556654to65511122" to="65511122to65539580" />
<connection from="65556654to65511122" to="65511122to65556654" />
<connection from="65511122to65511125" to="65511125to65511122" />
<connection from="65511122to65511125" to="65511125to4192544209" />
<connection from="65511122to65511125" to="65511125to4742673737" />
<connection from="4192544209to65511125" to="65511125to65511122" />
<connection from="4192544209to65511125" to="65511125to4192544209" />
<connection from="4192544209to65511125" to="65511125to4742673737" />
<connection from="4742673737to65511125" to="65511125to65511122" />
<connection from="4742673737to65511125" to="65511125to4192544209" />
<connection from="4742673737to65511125" to="65511125to4742673737" />
<connection from="3406437907to65511794" to="65511794to3406437907" />
<connection from="3406437907to65511794" to="65511794to1782366277" />
<connection from="3406437907to65511794" to="65511794to65565228" />
<connection from="1782366277to65511794" to="65511794to3406437907" />
<connection from="1782366277to65511794" to="65511794to1782366277" />
<connection from="1782366277to65511794" to="65511794to65565228" />
<connection from="65565228to65511794" to="65511794to3406437907" />
<connection from="65565228to65511794" to="65511794to1782366277" />
<connection from="65565228to65511794" to="65511794to65565228" />
<connection from="65565064to65525278" to="65525278to65565064" />
<connection from="65565064to65525278" to="65525278to65525280" />
<connection from="65565064to65525278" to="65525278to65658619" />
<connection from="65525280to65525278" to="65525278to65565064" />
<connection from="65525280to65525278" to="65525278to65525280" />
<connection from="65525280to65525278" to="65525278to65658619" />
<connection from="65658619to65525278" to="65525278to65565064" />
<connection from="65658619to65525278" to="65525278to65525280" />
<connection from="65658619to65525278" to="65525278to65658619" />
<connection from="65525278to65525280" to="65525280to65525278" />
<connection from="65525278to65525280" to="65525280to65565068" />
<connection from="65525278to65525280" to="65525280to65565228" />
<connection from="65565068to65525280" to="65525280to65525278" />
<connection from="65565068to65525280" to="65525280to65565068" />
<connection from="65565068to65525280" to="65525280to65565228" />
<connection from="65565228to65525280" to="65525280to65525278" />
<connection from="65565228to65525280" to="65525280to65565068" />
<connection from="65565228to65525280" to="65525280to65565228" />
<connection from="6459925109to65528782" to="65528782to6459925109" />
<connection from="6459925109to65528782" to="65528782to6282025812" />
<connection from="6459925109to65528782" to="65528782to6282025811" />
<connection from="6282025812to65528782" to="65528782to6459925109" />
<connection from="6282025812to65528782" to="65528782to6282025812" />
<connection from="6282025812to65528782" to="65528782to6282025811" />
<connection from="6282025811to65528782" to="65528782to6459925109" />
<connection from="6282025811to65528782" to="65528782to6282025812" />
<connection from="6282025811to65528782" to="65528782to6282025811" />
<connection from="65511122to65539580" to="65539580to65511122" />
<connection from="65511122to65539580" to="65539580to4742673737" />
<connection from="65511122to65539580" to="65539580to256558438" />
<connection from="65511122to65539580" to="65539580to65556607" />
<connection from="4742673737to65539580" to="65539580to65511122" />
<connection from="4742673737to65539580" to="65539580to4742673737" />
<connection from="4742673737to65539580" to="65539580to256558438" />
<connection from="4742673737to65539580" to="65539580to65556607" />
<connection from="256558438to65539580" to="65539580to65511122" />
<connection from="256558438to65539580" to="65539580to4742673737" />
<connection from="256558438to65539580" to="65539580to256558438" />
<connection from="256558438to65539580" to="65539580to65556607" />
<connection from="65556607to65539580" to="65539580to65511122" />
<connection from="65556607to65539580" to="65539580to4742673737" />
<connection from="65556607to65539580" to="65539580to256558438" />
<connection from="65556607to65539580" to="65539580to65556607" />
<connection from="6917973013to65539585" to="65539585to6917973013" />
<connection from="6917973013to65539585" to="65539585to5555812015" />
<connection from="6917973013to65539585" to="65539585to340333268" />
<connection from="5555812015to65539585" to="65539585to6917973013" />
<connection from="5555812015to65539585" to="65539585to5555812015" />
<connection from="5555812015to65539585" to="65539585to340333268" />
<connection from="340333268to65539585" to="65539585to6917973013" />
<connection from="340333268to65539585" to="65539585to5555812015" />
<connection from="340333268to65539585" to="65539585to340333268" />
<connection from="5417696255to65539592" to="65539592to5417696255" />
<connection from="5417696255to65539592" to="65539592to354801007" />
<connection from="5417696255to65539592" to="65539592to65543924" />
<connection from="354801007to65539592" to="65539592to5417696255" />
<connection from="354801007to65539592" to="65539592to354801007" />
<connection from="354801007to65539592" to="65539592to65543924" />
<connection from="65543924to65539592" to="65539592to5417696255" />
<connection from="65543924to65539592" to="65539592to354801007" />
<connection from="65543924to65539592" to="65539592to65543924" />
<connection from="847469519to65543380" to="65543380to847469519" />
<connection from="847469519to65543380" to="65543380to2572535777" />
<connection from="847469519to65543380" to="65543380to2572535780" />
<connection from="847469519to65543380" to="65543380to847469490" />
<connection from="2572535777to65543380" to="65543380to847469519" />
<connection from="2572535777to65543380" to="65543380to2572535777" />
<connection from="2572535777to65543380" to="65543380to2572535780" />
<connection from="2572535777to65543380" to="65543380to847469490" />
<connection from="2572535780to65543380" to="65543380to847469519" />
<connection from="2572535780to65543380" to="65543380to2572535777" />
<connection from="2572535780to65543380" to="65543380to2572535780" />
<connection from="2572535780to65543380" to="65543380to847469490" />
<connection from="847469490to65543380" to="65543380to847469519" />
<connection from="847469490to65543380" to="65543380to2572535777" />
<connection from="847469490to65543380" to="65543380to2572535780" />
<connection from="847469490to65543380" to="65543380to847469490" />
<connection from="65539592to65543924" to="65543924to65539592" />
<connection from="65545427to65545423" to="65545423to65545427" />
<connection from="65545427to65545423" to="65545423to9561828293" />
<connection from="65545427to65545423" to="65545423to7870980838" />
<connection from="9561828293to65545423" to="65545423to65545427" />
<connection from="9561828293to65545423" to="65545423to9561828293" />
<connection from="9561828293to65545423" to="65545423to7870980838" />
<connection from="7870980838to65545423" to="65545423to65545427" />
<connection from="7870980838to65545423" to="65545423to9561828293" />
<connection from="7870980838to65545423" to="65545423to7870980838" />
<connection from="65545423to65545427" to="65545427to65545423" />
<connection from="65545423to65545427" to="65545427to65545447" />
<connection from="65545423to65545427" to="65545427to1330035207" />
<connection from="65545423to65545427" to="65545427to7941128442" />
<connection from="65545447to65545427" to="65545427to65545423" />
<connection from="65545447to65545427" to="65545427to65545447" />
<connection from="65545447to65545427" to="65545427to1330035207" />
<connection from="65545447to65545427" to="65545427to7941128442" />
<connection from="1330035207to65545427" to="65545427to65545423" />
<connection from="1330035207to65545427" to="65545427to65545447" />
<connection from="1330035207to65545427" to="65545427to1330035207" />
<connection from="1330035207to65545427" to="65545427to7941128442" />
<connection from="7941128442to65545427" to="65545427to65545423" />
<connection from="7941128442to65545427" to="65545427to65545447" />
<connection from="7941128442to65545427" to="65545427to1330035207" />
<connection from="7941128442to65545427" to="65545427to7941128442" />
<connection from="65545441to65545431" to="65545431to65545441" />
<connection from="65545441to65545431" to="65545431to2733190240" />
<connection from="2733190240to65545431" to="65545431to65545441" />
<connection from="2733190240to65545431" to="65545431to2733190240" />
<connection from="65545431to65545441" to="65545441to65545431" />
<connection from="65545431to65545441" to="65545441to2733190239" />
<connection from="2733190239to65545441" to="65545441to65545431" />
<connection from="2733190239to65545441" to="65545441to2733190239" />
<connection from="65545427to65545447" to="65545447to65545427" />
<connection from="65545427to65545447" to="65545447to7078764375" />
<connection from="65545427to65545447" to="65545447to7870980838" />
<connection from="65545427to65545447" to="65545447to1330035254" />
<connection from="65545427to65545447" to="65545447to4178848061" />
<connection from="7078764375to65545447" to="65545447to65545427" />
<connection from="7078764375to65545447" to="65545447to7078764375" />
<connection from="7078764375to65545447" to="65545447to7870980838" />
<connection from="7078764375to65545447" to="65545447to1330035254" />
<connection from="7078764375to65545447" to="65545447to4178848061" />
<connection from="7870980838to65545447" to="65545447to65545427" />
<connection from="7870980838to65545447" to="65545447to7078764375" />
<connection from="7870980838to65545447" to="65545447to7870980838" />
<connection from="7870980838to65545447" to="65545447to1330035254" />
<connection from="7870980838to65545447" to="65545447to4178848061" />
<connection from="1330035254to65545447" to="65545447to65545427" />
<connection from="1330035254to65545447" to="65545447to7078764375" />
<connection from="1330035254to65545447" to="65545447to7870980838" />
<connection from="1330035254to65545447" to="65545447to1330035254" />
<connection from="1330035254to65545447" to="65545447to4178848061" />
<connection from="4178848061to65545447" to="65545447to65545427" />
<connection from="4178848061to65545447" to="65545447to7078764375" />
<connection from="4178848061to65545447" to="65545447to7870980838" />
<connection from="4178848061to65545447" to="65545447to1330035254" />
<connection from="4178848061to65545447" to="65545447to4178848061" />
<connection from="4820803735to65546898" to="65546898to4820803735" />
<connection from="4820803735to65546898" to="65546898to518814480" />
<connection from="4820803735to65546898" to="65546898to518814468" />
<connection from="4820803735to65546898" to="65546898to6306972824" />
<connection from="518814480to65546898" to="65546898to4820803735" />
<connection from="518814480to65546898" to="65546898to518814480" />
<connection from="518814480to65546898" to="65546898to518814468" />
<connection from="518814480to65546898" to="65546898to6306972824" />
<connection from="518814468to65546898" to="65546898to4820803735" />
<connection from="518814468to65546898" to="65546898to518814480" />
<connection from="518814468to65546898" to="65546898to518814468" />
<connection from="518814468to65546898" to="65546898to6306972824" />
<connection from="6306972824to65546898" to="65546898to4820803735" />
<connection from="6306972824to65546898" to="65546898to518814480" />
<connection from="6306972824to65546898" to="65546898to518814468" />
<connection from="6306972824to65546898" to="65546898to6306972824" />
<connection from="6308631178to65546899" to="65546899to6308631178" />
<connection from="6308631178to65546899" to="65546899to847469304" />
<connection from="6308631178to65546899" to="65546899to6308634385" />
<connection from="847469304to65546899" to="65546899to6308631178" />
<connection from="847469304to65546899" to="65546899to847469304" />
<connection from="847469304to65546899" to="65546899to6308634385" />
<connection from="6308634385to65546899" to="65546899to6308631178" />
<connection from="6308634385to65546899" to="65546899to847469304" />
<connection from="6308634385to65546899" to="65546899to6308634385" />
<connection from="522188960to65556600" to="65556600to522188960" />
<connection from="522188960to65556600" to="65556600to7133218464" />
<connection from="7133218464to65556600" to="65556600to522188960" />
<connection from="7133218464to65556600" to="65556600to7133218464" />
<connection from="847467170to65556602" to="65556602to847467170" />
<connection from="847467170to65556602" to="65556602to7928670247" />
<connection from="7928670247to65556602" to="65556602to847467170" />
<connection from="7928670247to65556602" to="65556602to7928670247" />
<connection from="65510924to65556603" to="65556603to65510924" />
<connection from="65510924to65556603" to="65556603to847467170" />
<connection from="65510924to65556603" to="65556603to1782352097" />
<connection from="847467170to65556603" to="65556603to65510924" />
<connection from="847467170to65556603" to="65556603to847467170" />
<connection from="847467170to65556603" to="65556603to1782352097" />
<connection from="1782352097to65556603" to="65556603to65510924" />
<connection from="1782352097to65556603" to="65556603to847467170" />
<connection from="1782352097to65556603" to="65556603to1782352097" />
<connection from="65539580to65556607" to="65556607to65539580" />
<connection from="65539580to65556607" to="65556607to4742673732" />
<connection from="65539580to65556607" to="65556607to65511047" />
<connection from="4742673732to65556607" to="65556607to65539580" />
<connection from="4742673732to65556607" to="65556607to4742673732" />
<connection from="4742673732to65556607" to="65556607to65511047" />
<connection from="65511047to65556607" to="65556607to65539580" />
<connection from="65511047to65556607" to="65556607to4742673732" />
<connection from="65511047to65556607" to="65556607to65511047" />
<connection from="3088430472to65556629" to="65556629to3088430472" />
<connection from="3088430472to65556629" to="65556629to689534772" />
<connection from="689534772to65556629" to="65556629to3088430472" />
<connection from="689534772to65556629" to="65556629to689534772" />
<connection from="5852676329to65556645" to="65556645to5852676329" />
<connection from="5852676329to65556645" to="65556645to6917873753" />
<connection from="6917873753to65556645" to="65556645to5852676329" />
<connection from="6917873753to65556645" to="65556645to6917873753" />
<connection from="2674894492to65556654" to="65556654to2674894492" />
<connection from="2674894492to65556654" to="65556654to65511122" />
<connection from="2674894492to65556654" to="65556654to65556664" />
<connection from="65511122to65556654" to="65556654to2674894492" />
<connection from="65511122to65556654" to="65556654to65511122" />
<connection from="65511122to65556654" to="65556654to65556664" />
<connection from="65556664to65556654" to="65556654to2674894492" />
<connection from="65556664to65556654" to="65556654to65511122" />
<connection from="65556664to65556654" to="65556654to65556664" />